version 2
run General-0-20100824-17:36:25-8210
attr configname General
attr datetime 20100824-17:36:25
attr experiment General
attr inifile world_simple.ini
attr iterationvars ""
attr iterationvars2 $repetition=0
attr measurement ""
attr network oversim.underlay.inetunderlay.InetUnderlayNetwork
attr processid 8210
attr repetition 0
attr replication #0
attr resultdir results
attr runnumber 0
attr seedset 1

scalar InetUnderlayNetwork.underlayConfigurator 	"Terminals added" 	28
scalar InetUnderlayNetwork.underlayConfigurator 	"Terminals removed" 	0
scalar InetUnderlayNetwork.backboneRouter[0].networkLayer.arp 	"ARP requests sent" 	0
scalar InetUnderlayNetwork.backboneRouter[0].networkLayer.arp 	"ARP replies sent" 	0
scalar InetUnderlayNetwork.backboneRouter[0].networkLayer.arp 	"ARP resolutions" 	0
scalar InetUnderlayNetwork.backboneRouter[0].networkLayer.arp 	"failed ARP resolutions" 	0
scalar InetUnderlayNetwork.backboneRouter[0].ppp[0].queue 	"packets received by queue" 	5398
scalar InetUnderlayNetwork.backboneRouter[0].ppp[0].queue 	"packets dropped by queue" 	0
scalar InetUnderlayNetwork.backboneRouter[0].ppp[1].queue 	"packets received by queue" 	1457
scalar InetUnderlayNetwork.backboneRouter[0].ppp[1].queue 	"packets dropped by queue" 	0
scalar InetUnderlayNetwork.backboneRouter[0].ppp[2].queue 	"packets received by queue" 	2197
scalar InetUnderlayNetwork.backboneRouter[0].ppp[2].queue 	"packets dropped by queue" 	0
scalar InetUnderlayNetwork.backboneRouter[0].ppp[3].queue 	"packets received by queue" 	0
scalar InetUnderlayNetwork.backboneRouter[0].ppp[3].queue 	"packets dropped by queue" 	0
scalar InetUnderlayNetwork.backboneRouter[0].ppp[4].queue 	"packets received by queue" 	0
scalar InetUnderlayNetwork.backboneRouter[0].ppp[4].queue 	"packets dropped by queue" 	0
scalar InetUnderlayNetwork.backboneRouter[0].ppp[5].queue 	"packets received by queue" 	0
scalar InetUnderlayNetwork.backboneRouter[0].ppp[5].queue 	"packets dropped by queue" 	0
scalar InetUnderlayNetwork.backboneRouter[0].ppp[6].queue 	"packets received by queue" 	495
scalar InetUnderlayNetwork.backboneRouter[0].ppp[6].queue 	"packets dropped by queue" 	0
scalar InetUnderlayNetwork.backboneRouter[0].ppp[7].queue 	"packets received by queue" 	455
scalar InetUnderlayNetwork.backboneRouter[0].ppp[7].queue 	"packets dropped by queue" 	0
scalar InetUnderlayNetwork.backboneRouter[0].ppp[8].queue 	"packets received by queue" 	0
scalar InetUnderlayNetwork.backboneRouter[0].ppp[8].queue 	"packets dropped by queue" 	0
scalar InetUnderlayNetwork.backboneRouter[0].ppp[9].queue 	"packets received by queue" 	7129
scalar InetUnderlayNetwork.backboneRouter[0].ppp[9].queue 	"packets dropped by queue" 	0
scalar InetUnderlayNetwork.backboneRouter[0].ppp[10].queue 	"packets received by queue" 	1316
scalar InetUnderlayNetwork.backboneRouter[0].ppp[10].queue 	"packets dropped by queue" 	0
scalar InetUnderlayNetwork.backboneRouter[0].ppp[11].queue 	"packets received by queue" 	0
scalar InetUnderlayNetwork.backboneRouter[0].ppp[11].queue 	"packets dropped by queue" 	0
scalar InetUnderlayNetwork.backboneRouter[0].ppp[12].queue 	"packets received by queue" 	444
scalar InetUnderlayNetwork.backboneRouter[0].ppp[12].queue 	"packets dropped by queue" 	0
scalar InetUnderlayNetwork.backboneRouter[0].ppp[13].queue 	"packets received by queue" 	0
scalar InetUnderlayNetwork.backboneRouter[0].ppp[13].queue 	"packets dropped by queue" 	0
scalar InetUnderlayNetwork.backboneRouter[0].ppp[14].queue 	"packets received by queue" 	0
scalar InetUnderlayNetwork.backboneRouter[0].ppp[14].queue 	"packets dropped by queue" 	0
scalar InetUnderlayNetwork.backboneRouter[0].ppp[15].queue 	"packets received by queue" 	0
scalar InetUnderlayNetwork.backboneRouter[0].ppp[15].queue 	"packets dropped by queue" 	0
scalar InetUnderlayNetwork.backboneRouter[0].ppp[16].queue 	"packets received by queue" 	0
scalar InetUnderlayNetwork.backboneRouter[0].ppp[16].queue 	"packets dropped by queue" 	0
scalar InetUnderlayNetwork.backboneRouter[0].ppp[17].queue 	"packets received by queue" 	535
scalar InetUnderlayNetwork.backboneRouter[0].ppp[17].queue 	"packets dropped by queue" 	0
scalar InetUnderlayNetwork.backboneRouter[0].ppp[18].queue 	"packets received by queue" 	0
scalar InetUnderlayNetwork.backboneRouter[0].ppp[18].queue 	"packets dropped by queue" 	0
scalar InetUnderlayNetwork.backboneRouter[0].ppp[19].queue 	"packets received by queue" 	123
scalar InetUnderlayNetwork.backboneRouter[0].ppp[19].queue 	"packets dropped by queue" 	0
scalar InetUnderlayNetwork.backboneRouter[0].ppp[20].queue 	"packets received by queue" 	182
scalar InetUnderlayNetwork.backboneRouter[0].ppp[20].queue 	"packets dropped by queue" 	0
scalar InetUnderlayNetwork.backboneRouter[0].ppp[21].queue 	"packets received by queue" 	0
scalar InetUnderlayNetwork.backboneRouter[0].ppp[21].queue 	"packets dropped by queue" 	0
scalar InetUnderlayNetwork.backboneRouter[0].ppp[22].queue 	"packets received by queue" 	0
scalar InetUnderlayNetwork.backboneRouter[0].ppp[22].queue 	"packets dropped by queue" 	0
scalar InetUnderlayNetwork.backboneRouter[0].ppp[23].queue 	"packets received by queue" 	372
scalar InetUnderlayNetwork.backboneRouter[0].ppp[23].queue 	"packets dropped by queue" 	0
scalar InetUnderlayNetwork.backboneRouter[0].ppp[24].queue 	"packets received by queue" 	0
scalar InetUnderlayNetwork.backboneRouter[0].ppp[24].queue 	"packets dropped by queue" 	0
scalar InetUnderlayNetwork.backboneRouter[0].ppp[25].queue 	"packets received by queue" 	398
scalar InetUnderlayNetwork.backboneRouter[0].ppp[25].queue 	"packets dropped by queue" 	0
scalar InetUnderlayNetwork.backboneRouter[0].ppp[26].queue 	"packets received by queue" 	0
scalar InetUnderlayNetwork.backboneRouter[0].ppp[26].queue 	"packets dropped by queue" 	0
scalar InetUnderlayNetwork.backboneRouter[0].ppp[27].queue 	"packets received by queue" 	0
scalar InetUnderlayNetwork.backboneRouter[0].ppp[27].queue 	"packets dropped by queue" 	0
scalar InetUnderlayNetwork.backboneRouter[0].ppp[28].queue 	"packets received by queue" 	0
scalar InetUnderlayNetwork.backboneRouter[0].ppp[28].queue 	"packets dropped by queue" 	0
scalar InetUnderlayNetwork.backboneRouter[0].ppp[29].queue 	"packets received by queue" 	0
scalar InetUnderlayNetwork.backboneRouter[0].ppp[29].queue 	"packets dropped by queue" 	0
scalar InetUnderlayNetwork.backboneRouter[0].ppp[30].queue 	"packets received by queue" 	673
scalar InetUnderlayNetwork.backboneRouter[0].ppp[30].queue 	"packets dropped by queue" 	0
scalar InetUnderlayNetwork.backboneRouter[0].ppp[31].queue 	"packets received by queue" 	0
scalar InetUnderlayNetwork.backboneRouter[0].ppp[31].queue 	"packets dropped by queue" 	0
scalar InetUnderlayNetwork.backboneRouter[0].ppp[32].queue 	"packets received by queue" 	0
scalar InetUnderlayNetwork.backboneRouter[0].ppp[32].queue 	"packets dropped by queue" 	0
scalar InetUnderlayNetwork.backboneRouter[0].ppp[33].queue 	"packets received by queue" 	0
scalar InetUnderlayNetwork.backboneRouter[0].ppp[33].queue 	"packets dropped by queue" 	0
scalar InetUnderlayNetwork.backboneRouter[0].ppp[34].queue 	"packets received by queue" 	0
scalar InetUnderlayNetwork.backboneRouter[0].ppp[34].queue 	"packets dropped by queue" 	0
scalar InetUnderlayNetwork.backboneRouter[0].ppp[35].queue 	"packets received by queue" 	180
scalar InetUnderlayNetwork.backboneRouter[0].ppp[35].queue 	"packets dropped by queue" 	0
scalar InetUnderlayNetwork.backboneRouter[0].ppp[36].queue 	"packets received by queue" 	0
scalar InetUnderlayNetwork.backboneRouter[0].ppp[36].queue 	"packets dropped by queue" 	0
scalar InetUnderlayNetwork.backboneRouter[0].ppp[37].queue 	"packets received by queue" 	0
scalar InetUnderlayNetwork.backboneRouter[0].ppp[37].queue 	"packets dropped by queue" 	0
scalar InetUnderlayNetwork.backboneRouter[0].ppp[38].queue 	"packets received by queue" 	0
scalar InetUnderlayNetwork.backboneRouter[0].ppp[38].queue 	"packets dropped by queue" 	0
scalar InetUnderlayNetwork.backboneRouter[0].ppp[39].queue 	"packets received by queue" 	0
scalar InetUnderlayNetwork.backboneRouter[0].ppp[39].queue 	"packets dropped by queue" 	0
scalar InetUnderlayNetwork.backboneRouter[0].ppp[40].queue 	"packets received by queue" 	0
scalar InetUnderlayNetwork.backboneRouter[0].ppp[40].queue 	"packets dropped by queue" 	0
scalar InetUnderlayNetwork.backboneRouter[0].ppp[41].queue 	"packets received by queue" 	0
scalar InetUnderlayNetwork.backboneRouter[0].ppp[41].queue 	"packets dropped by queue" 	0
scalar InetUnderlayNetwork.backboneRouter[0].ppp[42].queue 	"packets received by queue" 	6266
scalar InetUnderlayNetwork.backboneRouter[0].ppp[42].queue 	"packets dropped by queue" 	0
scalar InetUnderlayNetwork.backboneRouter[0].ppp[43].queue 	"packets received by queue" 	0
scalar InetUnderlayNetwork.backboneRouter[0].ppp[43].queue 	"packets dropped by queue" 	0
scalar InetUnderlayNetwork.backboneRouter[0].ppp[44].queue 	"packets received by queue" 	0
scalar InetUnderlayNetwork.backboneRouter[0].ppp[44].queue 	"packets dropped by queue" 	0
scalar InetUnderlayNetwork.backboneRouter[1].networkLayer.arp 	"ARP requests sent" 	0
scalar InetUnderlayNetwork.backboneRouter[1].networkLayer.arp 	"ARP replies sent" 	0
scalar InetUnderlayNetwork.backboneRouter[1].networkLayer.arp 	"ARP resolutions" 	0
scalar InetUnderlayNetwork.backboneRouter[1].networkLayer.arp 	"failed ARP resolutions" 	0
scalar InetUnderlayNetwork.backboneRouter[1].ppp[0].queue 	"packets received by queue" 	563
scalar InetUnderlayNetwork.backboneRouter[1].ppp[0].queue 	"packets dropped by queue" 	0
scalar InetUnderlayNetwork.backboneRouter[1].ppp[1].queue 	"packets received by queue" 	0
scalar InetUnderlayNetwork.backboneRouter[1].ppp[1].queue 	"packets dropped by queue" 	0
scalar InetUnderlayNetwork.backboneRouter[1].ppp[2].queue 	"packets received by queue" 	0
scalar InetUnderlayNetwork.backboneRouter[1].ppp[2].queue 	"packets dropped by queue" 	0
scalar InetUnderlayNetwork.backboneRouter[1].ppp[3].queue 	"packets received by queue" 	0
scalar InetUnderlayNetwork.backboneRouter[1].ppp[3].queue 	"packets dropped by queue" 	0
scalar InetUnderlayNetwork.backboneRouter[1].ppp[4].queue 	"packets received by queue" 	0
scalar InetUnderlayNetwork.backboneRouter[1].ppp[4].queue 	"packets dropped by queue" 	0
scalar InetUnderlayNetwork.backboneRouter[1].ppp[5].queue 	"packets received by queue" 	489
scalar InetUnderlayNetwork.backboneRouter[1].ppp[5].queue 	"packets dropped by queue" 	0
scalar InetUnderlayNetwork.backboneRouter[1].ppp[6].queue 	"packets received by queue" 	505
scalar InetUnderlayNetwork.backboneRouter[1].ppp[6].queue 	"packets dropped by queue" 	0
scalar InetUnderlayNetwork.backboneRouter[1].ppp[7].queue 	"packets received by queue" 	0
scalar InetUnderlayNetwork.backboneRouter[1].ppp[7].queue 	"packets dropped by queue" 	0
scalar InetUnderlayNetwork.backboneRouter[1].ppp[8].queue 	"packets received by queue" 	57
scalar InetUnderlayNetwork.backboneRouter[1].ppp[8].queue 	"packets dropped by queue" 	0
scalar InetUnderlayNetwork.backboneRouter[1].ppp[9].queue 	"packets received by queue" 	1
scalar InetUnderlayNetwork.backboneRouter[1].ppp[9].queue 	"packets dropped by queue" 	0
scalar InetUnderlayNetwork.backboneRouter[1].ppp[10].queue 	"packets received by queue" 	135
scalar InetUnderlayNetwork.backboneRouter[1].ppp[10].queue 	"packets dropped by queue" 	0
scalar InetUnderlayNetwork.backboneRouter[1].ppp[11].queue 	"packets received by queue" 	0
scalar InetUnderlayNetwork.backboneRouter[1].ppp[11].queue 	"packets dropped by queue" 	0
scalar InetUnderlayNetwork.backboneRouter[1].ppp[12].queue 	"packets received by queue" 	0
scalar InetUnderlayNetwork.backboneRouter[1].ppp[12].queue 	"packets dropped by queue" 	0
scalar InetUnderlayNetwork.backboneRouter[1].ppp[13].queue 	"packets received by queue" 	0
scalar InetUnderlayNetwork.backboneRouter[1].ppp[13].queue 	"packets dropped by queue" 	0
scalar InetUnderlayNetwork.backboneRouter[1].ppp[14].queue 	"packets received by queue" 	3688
scalar InetUnderlayNetwork.backboneRouter[1].ppp[14].queue 	"packets dropped by queue" 	0
scalar InetUnderlayNetwork.backboneRouter[1].ppp[15].queue 	"packets received by queue" 	0
scalar InetUnderlayNetwork.backboneRouter[1].ppp[15].queue 	"packets dropped by queue" 	0
scalar InetUnderlayNetwork.backboneRouter[1].ppp[16].queue 	"packets received by queue" 	0
scalar InetUnderlayNetwork.backboneRouter[1].ppp[16].queue 	"packets dropped by queue" 	0
scalar InetUnderlayNetwork.backboneRouter[1].ppp[17].queue 	"packets received by queue" 	110
scalar InetUnderlayNetwork.backboneRouter[1].ppp[17].queue 	"packets dropped by queue" 	0
scalar InetUnderlayNetwork.backboneRouter[1].ppp[18].queue 	"packets received by queue" 	0
scalar InetUnderlayNetwork.backboneRouter[1].ppp[18].queue 	"packets dropped by queue" 	0
scalar InetUnderlayNetwork.backboneRouter[1].ppp[19].queue 	"packets received by queue" 	4874
scalar InetUnderlayNetwork.backboneRouter[1].ppp[19].queue 	"packets dropped by queue" 	0
scalar InetUnderlayNetwork.backboneRouter[1].ppp[20].queue 	"packets received by queue" 	1123
scalar InetUnderlayNetwork.backboneRouter[1].ppp[20].queue 	"packets dropped by queue" 	0
scalar InetUnderlayNetwork.backboneRouter[1].ppp[21].queue 	"packets received by queue" 	0
scalar InetUnderlayNetwork.backboneRouter[1].ppp[21].queue 	"packets dropped by queue" 	0
scalar InetUnderlayNetwork.backboneRouter[1].ppp[22].queue 	"packets received by queue" 	0
scalar InetUnderlayNetwork.backboneRouter[1].ppp[22].queue 	"packets dropped by queue" 	0
scalar InetUnderlayNetwork.backboneRouter[1].ppp[23].queue 	"packets received by queue" 	1171
scalar InetUnderlayNetwork.backboneRouter[1].ppp[23].queue 	"packets dropped by queue" 	0
scalar InetUnderlayNetwork.backboneRouter[1].ppp[24].queue 	"packets received by queue" 	0
scalar InetUnderlayNetwork.backboneRouter[1].ppp[24].queue 	"packets dropped by queue" 	0
scalar InetUnderlayNetwork.backboneRouter[1].ppp[25].queue 	"packets received by queue" 	26
scalar InetUnderlayNetwork.backboneRouter[1].ppp[25].queue 	"packets dropped by queue" 	0
scalar InetUnderlayNetwork.backboneRouter[1].ppp[26].queue 	"packets received by queue" 	0
scalar InetUnderlayNetwork.backboneRouter[1].ppp[26].queue 	"packets dropped by queue" 	0
scalar InetUnderlayNetwork.backboneRouter[1].ppp[27].queue 	"packets received by queue" 	0
scalar InetUnderlayNetwork.backboneRouter[1].ppp[27].queue 	"packets dropped by queue" 	0
scalar InetUnderlayNetwork.backboneRouter[1].ppp[28].queue 	"packets received by queue" 	0
scalar InetUnderlayNetwork.backboneRouter[1].ppp[28].queue 	"packets dropped by queue" 	0
scalar InetUnderlayNetwork.backboneRouter[1].ppp[29].queue 	"packets received by queue" 	0
scalar InetUnderlayNetwork.backboneRouter[1].ppp[29].queue 	"packets dropped by queue" 	0
scalar InetUnderlayNetwork.backboneRouter[1].ppp[30].queue 	"packets received by queue" 	0
scalar InetUnderlayNetwork.backboneRouter[1].ppp[30].queue 	"packets dropped by queue" 	0
scalar InetUnderlayNetwork.backboneRouter[1].ppp[31].queue 	"packets received by queue" 	2743
scalar InetUnderlayNetwork.backboneRouter[1].ppp[31].queue 	"packets dropped by queue" 	0
scalar InetUnderlayNetwork.backboneRouter[1].ppp[32].queue 	"packets received by queue" 	0
scalar InetUnderlayNetwork.backboneRouter[1].ppp[32].queue 	"packets dropped by queue" 	0
scalar InetUnderlayNetwork.backboneRouter[1].ppp[33].queue 	"packets received by queue" 	1130
scalar InetUnderlayNetwork.backboneRouter[1].ppp[33].queue 	"packets dropped by queue" 	0
scalar InetUnderlayNetwork.backboneRouter[1].ppp[34].queue 	"packets received by queue" 	0
scalar InetUnderlayNetwork.backboneRouter[1].ppp[34].queue 	"packets dropped by queue" 	0
scalar InetUnderlayNetwork.backboneRouter[1].ppp[35].queue 	"packets received by queue" 	0
scalar InetUnderlayNetwork.backboneRouter[1].ppp[35].queue 	"packets dropped by queue" 	0
scalar InetUnderlayNetwork.backboneRouter[1].ppp[36].queue 	"packets received by queue" 	0
scalar InetUnderlayNetwork.backboneRouter[1].ppp[36].queue 	"packets dropped by queue" 	0
scalar InetUnderlayNetwork.backboneRouter[1].ppp[37].queue 	"packets received by queue" 	165
scalar InetUnderlayNetwork.backboneRouter[1].ppp[37].queue 	"packets dropped by queue" 	0
scalar InetUnderlayNetwork.backboneRouter[1].ppp[38].queue 	"packets received by queue" 	0
scalar InetUnderlayNetwork.backboneRouter[1].ppp[38].queue 	"packets dropped by queue" 	0
scalar InetUnderlayNetwork.backboneRouter[1].ppp[39].queue 	"packets received by queue" 	0
scalar InetUnderlayNetwork.backboneRouter[1].ppp[39].queue 	"packets dropped by queue" 	0
scalar InetUnderlayNetwork.backboneRouter[1].ppp[40].queue 	"packets received by queue" 	5894
scalar InetUnderlayNetwork.backboneRouter[1].ppp[40].queue 	"packets dropped by queue" 	0
scalar InetUnderlayNetwork.backboneRouter[1].ppp[41].queue 	"packets received by queue" 	5205
scalar InetUnderlayNetwork.backboneRouter[1].ppp[41].queue 	"packets dropped by queue" 	0
scalar InetUnderlayNetwork.backboneRouter[1].ppp[42].queue 	"packets received by queue" 	0
scalar InetUnderlayNetwork.backboneRouter[1].ppp[42].queue 	"packets dropped by queue" 	0
scalar InetUnderlayNetwork.backboneRouter[1].ppp[43].queue 	"packets received by queue" 	0
scalar InetUnderlayNetwork.backboneRouter[1].ppp[43].queue 	"packets dropped by queue" 	0
scalar InetUnderlayNetwork.backboneRouter[1].ppp[44].queue 	"packets received by queue" 	5202
scalar InetUnderlayNetwork.backboneRouter[1].ppp[44].queue 	"packets dropped by queue" 	0
scalar InetUnderlayNetwork.backboneRouter[1].ppp[45].queue 	"packets received by queue" 	0
scalar InetUnderlayNetwork.backboneRouter[1].ppp[45].queue 	"packets dropped by queue" 	0
scalar InetUnderlayNetwork.backboneRouter[2].networkLayer.arp 	"ARP requests sent" 	0
scalar InetUnderlayNetwork.backboneRouter[2].networkLayer.arp 	"ARP replies sent" 	0
scalar InetUnderlayNetwork.backboneRouter[2].networkLayer.arp 	"ARP resolutions" 	0
scalar InetUnderlayNetwork.backboneRouter[2].networkLayer.arp 	"failed ARP resolutions" 	0
scalar InetUnderlayNetwork.backboneRouter[2].ppp[0].queue 	"packets received by queue" 	678
scalar InetUnderlayNetwork.backboneRouter[2].ppp[0].queue 	"packets dropped by queue" 	0
scalar InetUnderlayNetwork.backboneRouter[2].ppp[1].queue 	"packets received by queue" 	667
scalar InetUnderlayNetwork.backboneRouter[2].ppp[1].queue 	"packets dropped by queue" 	0
scalar InetUnderlayNetwork.backboneRouter[2].ppp[2].queue 	"packets received by queue" 	1
scalar InetUnderlayNetwork.backboneRouter[2].ppp[2].queue 	"packets dropped by queue" 	0
scalar InetUnderlayNetwork.backboneRouter[2].ppp[3].queue 	"packets received by queue" 	0
scalar InetUnderlayNetwork.backboneRouter[2].ppp[3].queue 	"packets dropped by queue" 	0
scalar InetUnderlayNetwork.backboneRouter[2].ppp[4].queue 	"packets received by queue" 	0
scalar InetUnderlayNetwork.backboneRouter[2].ppp[4].queue 	"packets dropped by queue" 	0
scalar InetUnderlayNetwork.backboneRouter[2].ppp[5].queue 	"packets received by queue" 	0
scalar InetUnderlayNetwork.backboneRouter[2].ppp[5].queue 	"packets dropped by queue" 	0
scalar InetUnderlayNetwork.backboneRouter[2].ppp[6].queue 	"packets received by queue" 	0
scalar InetUnderlayNetwork.backboneRouter[2].ppp[6].queue 	"packets dropped by queue" 	0
scalar InetUnderlayNetwork.backboneRouter[2].ppp[7].queue 	"packets received by queue" 	12
scalar InetUnderlayNetwork.backboneRouter[2].ppp[7].queue 	"packets dropped by queue" 	0
scalar InetUnderlayNetwork.backboneRouter[2].ppp[8].queue 	"packets received by queue" 	0
scalar InetUnderlayNetwork.backboneRouter[2].ppp[8].queue 	"packets dropped by queue" 	0
scalar InetUnderlayNetwork.backboneRouter[2].ppp[9].queue 	"packets received by queue" 	1
scalar InetUnderlayNetwork.backboneRouter[2].ppp[9].queue 	"packets dropped by queue" 	0
scalar InetUnderlayNetwork.backboneRouter[2].ppp[10].queue 	"packets received by queue" 	2
scalar InetUnderlayNetwork.backboneRouter[2].ppp[10].queue 	"packets dropped by queue" 	0
scalar InetUnderlayNetwork.backboneRouter[2].ppp[11].queue 	"packets received by queue" 	0
scalar InetUnderlayNetwork.backboneRouter[2].ppp[11].queue 	"packets dropped by queue" 	0
scalar InetUnderlayNetwork.backboneRouter[2].ppp[12].queue 	"packets received by queue" 	0
scalar InetUnderlayNetwork.backboneRouter[2].ppp[12].queue 	"packets dropped by queue" 	0
scalar InetUnderlayNetwork.backboneRouter[2].ppp[13].queue 	"packets received by queue" 	0
scalar InetUnderlayNetwork.backboneRouter[2].ppp[13].queue 	"packets dropped by queue" 	0
scalar InetUnderlayNetwork.backboneRouter[2].ppp[14].queue 	"packets received by queue" 	0
scalar InetUnderlayNetwork.backboneRouter[2].ppp[14].queue 	"packets dropped by queue" 	0
scalar InetUnderlayNetwork.backboneRouter[2].ppp[15].queue 	"packets received by queue" 	0
scalar InetUnderlayNetwork.backboneRouter[2].ppp[15].queue 	"packets dropped by queue" 	0
scalar InetUnderlayNetwork.backboneRouter[2].ppp[16].queue 	"packets received by queue" 	0
scalar InetUnderlayNetwork.backboneRouter[2].ppp[16].queue 	"packets dropped by queue" 	0
scalar InetUnderlayNetwork.backboneRouter[2].ppp[17].queue 	"packets received by queue" 	0
scalar InetUnderlayNetwork.backboneRouter[2].ppp[17].queue 	"packets dropped by queue" 	0
scalar InetUnderlayNetwork.backboneRouter[2].ppp[18].queue 	"packets received by queue" 	0
scalar InetUnderlayNetwork.backboneRouter[2].ppp[18].queue 	"packets dropped by queue" 	0
scalar InetUnderlayNetwork.backboneRouter[2].ppp[19].queue 	"packets received by queue" 	5949
scalar InetUnderlayNetwork.backboneRouter[2].ppp[19].queue 	"packets dropped by queue" 	0
scalar InetUnderlayNetwork.backboneRouter[2].ppp[20].queue 	"packets received by queue" 	6
scalar InetUnderlayNetwork.backboneRouter[2].ppp[20].queue 	"packets dropped by queue" 	0
scalar InetUnderlayNetwork.backboneRouter[2].ppp[21].queue 	"packets received by queue" 	2
scalar InetUnderlayNetwork.backboneRouter[2].ppp[21].queue 	"packets dropped by queue" 	0
scalar InetUnderlayNetwork.backboneRouter[2].ppp[22].queue 	"packets received by queue" 	0
scalar InetUnderlayNetwork.backboneRouter[2].ppp[22].queue 	"packets dropped by queue" 	0
scalar InetUnderlayNetwork.backboneRouter[2].ppp[23].queue 	"packets received by queue" 	0
scalar InetUnderlayNetwork.backboneRouter[2].ppp[23].queue 	"packets dropped by queue" 	0
scalar InetUnderlayNetwork.backboneRouter[2].ppp[24].queue 	"packets received by queue" 	1
scalar InetUnderlayNetwork.backboneRouter[2].ppp[24].queue 	"packets dropped by queue" 	0
scalar InetUnderlayNetwork.backboneRouter[2].ppp[25].queue 	"packets received by queue" 	0
scalar InetUnderlayNetwork.backboneRouter[2].ppp[25].queue 	"packets dropped by queue" 	0
scalar InetUnderlayNetwork.backboneRouter[2].ppp[26].queue 	"packets received by queue" 	0
scalar InetUnderlayNetwork.backboneRouter[2].ppp[26].queue 	"packets dropped by queue" 	0
scalar InetUnderlayNetwork.backboneRouter[2].ppp[27].queue 	"packets received by queue" 	7
scalar InetUnderlayNetwork.backboneRouter[2].ppp[27].queue 	"packets dropped by queue" 	0
scalar InetUnderlayNetwork.backboneRouter[2].ppp[28].queue 	"packets received by queue" 	0
scalar InetUnderlayNetwork.backboneRouter[2].ppp[28].queue 	"packets dropped by queue" 	0
scalar InetUnderlayNetwork.backboneRouter[2].ppp[29].queue 	"packets received by queue" 	0
scalar InetUnderlayNetwork.backboneRouter[2].ppp[29].queue 	"packets dropped by queue" 	0
scalar InetUnderlayNetwork.backboneRouter[2].ppp[30].queue 	"packets received by queue" 	0
scalar InetUnderlayNetwork.backboneRouter[2].ppp[30].queue 	"packets dropped by queue" 	0
scalar InetUnderlayNetwork.backboneRouter[2].ppp[31].queue 	"packets received by queue" 	0
scalar InetUnderlayNetwork.backboneRouter[2].ppp[31].queue 	"packets dropped by queue" 	0
scalar InetUnderlayNetwork.backboneRouter[2].ppp[32].queue 	"packets received by queue" 	7
scalar InetUnderlayNetwork.backboneRouter[2].ppp[32].queue 	"packets dropped by queue" 	0
scalar InetUnderlayNetwork.backboneRouter[2].ppp[33].queue 	"packets received by queue" 	0
scalar InetUnderlayNetwork.backboneRouter[2].ppp[33].queue 	"packets dropped by queue" 	0
scalar InetUnderlayNetwork.backboneRouter[2].ppp[34].queue 	"packets received by queue" 	0
scalar InetUnderlayNetwork.backboneRouter[2].ppp[34].queue 	"packets dropped by queue" 	0
scalar InetUnderlayNetwork.backboneRouter[2].ppp[35].queue 	"packets received by queue" 	0
scalar InetUnderlayNetwork.backboneRouter[2].ppp[35].queue 	"packets dropped by queue" 	0
scalar InetUnderlayNetwork.backboneRouter[2].ppp[36].queue 	"packets received by queue" 	0
scalar InetUnderlayNetwork.backboneRouter[2].ppp[36].queue 	"packets dropped by queue" 	0
scalar InetUnderlayNetwork.backboneRouter[2].ppp[37].queue 	"packets received by queue" 	0
scalar InetUnderlayNetwork.backboneRouter[2].ppp[37].queue 	"packets dropped by queue" 	0
scalar InetUnderlayNetwork.backboneRouter[2].ppp[38].queue 	"packets received by queue" 	0
scalar InetUnderlayNetwork.backboneRouter[2].ppp[38].queue 	"packets dropped by queue" 	0
scalar InetUnderlayNetwork.backboneRouter[2].ppp[39].queue 	"packets received by queue" 	1401
scalar InetUnderlayNetwork.backboneRouter[2].ppp[39].queue 	"packets dropped by queue" 	0
scalar InetUnderlayNetwork.backboneRouter[2].ppp[40].queue 	"packets received by queue" 	0
scalar InetUnderlayNetwork.backboneRouter[2].ppp[40].queue 	"packets dropped by queue" 	0
scalar InetUnderlayNetwork.backboneRouter[2].ppp[41].queue 	"packets received by queue" 	4686
scalar InetUnderlayNetwork.backboneRouter[2].ppp[41].queue 	"packets dropped by queue" 	0
scalar InetUnderlayNetwork.backboneRouter[2].ppp[42].queue 	"packets received by queue" 	0
scalar InetUnderlayNetwork.backboneRouter[2].ppp[42].queue 	"packets dropped by queue" 	0
scalar InetUnderlayNetwork.backboneRouter[3].networkLayer.arp 	"ARP requests sent" 	0
scalar InetUnderlayNetwork.backboneRouter[3].networkLayer.arp 	"ARP replies sent" 	0
scalar InetUnderlayNetwork.backboneRouter[3].networkLayer.arp 	"ARP resolutions" 	0
scalar InetUnderlayNetwork.backboneRouter[3].networkLayer.arp 	"failed ARP resolutions" 	0
scalar InetUnderlayNetwork.backboneRouter[3].ppp[0].queue 	"packets received by queue" 	743
scalar InetUnderlayNetwork.backboneRouter[3].ppp[0].queue 	"packets dropped by queue" 	0
scalar InetUnderlayNetwork.backboneRouter[3].ppp[1].queue 	"packets received by queue" 	0
scalar InetUnderlayNetwork.backboneRouter[3].ppp[1].queue 	"packets dropped by queue" 	0
scalar InetUnderlayNetwork.backboneRouter[3].ppp[2].queue 	"packets received by queue" 	0
scalar InetUnderlayNetwork.backboneRouter[3].ppp[2].queue 	"packets dropped by queue" 	0
scalar InetUnderlayNetwork.backboneRouter[3].ppp[3].queue 	"packets received by queue" 	0
scalar InetUnderlayNetwork.backboneRouter[3].ppp[3].queue 	"packets dropped by queue" 	0
scalar InetUnderlayNetwork.backboneRouter[3].ppp[4].queue 	"packets received by queue" 	0
scalar InetUnderlayNetwork.backboneRouter[3].ppp[4].queue 	"packets dropped by queue" 	0
scalar InetUnderlayNetwork.backboneRouter[3].ppp[5].queue 	"packets received by queue" 	0
scalar InetUnderlayNetwork.backboneRouter[3].ppp[5].queue 	"packets dropped by queue" 	0
scalar InetUnderlayNetwork.backboneRouter[3].ppp[6].queue 	"packets received by queue" 	0
scalar InetUnderlayNetwork.backboneRouter[3].ppp[6].queue 	"packets dropped by queue" 	0
scalar InetUnderlayNetwork.backboneRouter[3].ppp[7].queue 	"packets received by queue" 	0
scalar InetUnderlayNetwork.backboneRouter[3].ppp[7].queue 	"packets dropped by queue" 	0
scalar InetUnderlayNetwork.backboneRouter[3].ppp[8].queue 	"packets received by queue" 	152
scalar InetUnderlayNetwork.backboneRouter[3].ppp[8].queue 	"packets dropped by queue" 	0
scalar InetUnderlayNetwork.backboneRouter[3].ppp[9].queue 	"packets received by queue" 	0
scalar InetUnderlayNetwork.backboneRouter[3].ppp[9].queue 	"packets dropped by queue" 	0
scalar InetUnderlayNetwork.backboneRouter[3].ppp[10].queue 	"packets received by queue" 	3
scalar InetUnderlayNetwork.backboneRouter[3].ppp[10].queue 	"packets dropped by queue" 	0
scalar InetUnderlayNetwork.backboneRouter[3].ppp[11].queue 	"packets received by queue" 	0
scalar InetUnderlayNetwork.backboneRouter[3].ppp[11].queue 	"packets dropped by queue" 	0
scalar InetUnderlayNetwork.backboneRouter[3].ppp[12].queue 	"packets received by queue" 	0
scalar InetUnderlayNetwork.backboneRouter[3].ppp[12].queue 	"packets dropped by queue" 	0
scalar InetUnderlayNetwork.backboneRouter[3].ppp[13].queue 	"packets received by queue" 	0
scalar InetUnderlayNetwork.backboneRouter[3].ppp[13].queue 	"packets dropped by queue" 	0
scalar InetUnderlayNetwork.backboneRouter[3].ppp[14].queue 	"packets received by queue" 	0
scalar InetUnderlayNetwork.backboneRouter[3].ppp[14].queue 	"packets dropped by queue" 	0
scalar InetUnderlayNetwork.backboneRouter[3].ppp[15].queue 	"packets received by queue" 	0
scalar InetUnderlayNetwork.backboneRouter[3].ppp[15].queue 	"packets dropped by queue" 	0
scalar InetUnderlayNetwork.backboneRouter[3].ppp[16].queue 	"packets received by queue" 	0
scalar InetUnderlayNetwork.backboneRouter[3].ppp[16].queue 	"packets dropped by queue" 	0
scalar InetUnderlayNetwork.backboneRouter[3].ppp[17].queue 	"packets received by queue" 	14
scalar InetUnderlayNetwork.backboneRouter[3].ppp[17].queue 	"packets dropped by queue" 	0
scalar InetUnderlayNetwork.backboneRouter[3].ppp[18].queue 	"packets received by queue" 	0
scalar InetUnderlayNetwork.backboneRouter[3].ppp[18].queue 	"packets dropped by queue" 	0
scalar InetUnderlayNetwork.backboneRouter[3].ppp[19].queue 	"packets received by queue" 	0
scalar InetUnderlayNetwork.backboneRouter[3].ppp[19].queue 	"packets dropped by queue" 	0
scalar InetUnderlayNetwork.backboneRouter[3].ppp[20].queue 	"packets received by queue" 	0
scalar InetUnderlayNetwork.backboneRouter[3].ppp[20].queue 	"packets dropped by queue" 	0
scalar InetUnderlayNetwork.backboneRouter[3].ppp[21].queue 	"packets received by queue" 	2
scalar InetUnderlayNetwork.backboneRouter[3].ppp[21].queue 	"packets dropped by queue" 	0
scalar InetUnderlayNetwork.backboneRouter[3].ppp[22].queue 	"packets received by queue" 	0
scalar InetUnderlayNetwork.backboneRouter[3].ppp[22].queue 	"packets dropped by queue" 	0
scalar InetUnderlayNetwork.backboneRouter[3].ppp[23].queue 	"packets received by queue" 	0
scalar InetUnderlayNetwork.backboneRouter[3].ppp[23].queue 	"packets dropped by queue" 	0
scalar InetUnderlayNetwork.backboneRouter[3].ppp[24].queue 	"packets received by queue" 	0
scalar InetUnderlayNetwork.backboneRouter[3].ppp[24].queue 	"packets dropped by queue" 	0
scalar InetUnderlayNetwork.backboneRouter[3].ppp[25].queue 	"packets received by queue" 	0
scalar InetUnderlayNetwork.backboneRouter[3].ppp[25].queue 	"packets dropped by queue" 	0
scalar InetUnderlayNetwork.backboneRouter[3].ppp[26].queue 	"packets received by queue" 	0
scalar InetUnderlayNetwork.backboneRouter[3].ppp[26].queue 	"packets dropped by queue" 	0
scalar InetUnderlayNetwork.backboneRouter[3].ppp[27].queue 	"packets received by queue" 	0
scalar InetUnderlayNetwork.backboneRouter[3].ppp[27].queue 	"packets dropped by queue" 	0
scalar InetUnderlayNetwork.backboneRouter[3].ppp[28].queue 	"packets received by queue" 	12
scalar InetUnderlayNetwork.backboneRouter[3].ppp[28].queue 	"packets dropped by queue" 	0
scalar InetUnderlayNetwork.backboneRouter[3].ppp[29].queue 	"packets received by queue" 	0
scalar InetUnderlayNetwork.backboneRouter[3].ppp[29].queue 	"packets dropped by queue" 	0
scalar InetUnderlayNetwork.backboneRouter[3].ppp[30].queue 	"packets received by queue" 	149
scalar InetUnderlayNetwork.backboneRouter[3].ppp[30].queue 	"packets dropped by queue" 	0
scalar InetUnderlayNetwork.backboneRouter[3].ppp[31].queue 	"packets received by queue" 	0
scalar InetUnderlayNetwork.backboneRouter[3].ppp[31].queue 	"packets dropped by queue" 	0
scalar InetUnderlayNetwork.backboneRouter[3].ppp[32].queue 	"packets received by queue" 	0
scalar InetUnderlayNetwork.backboneRouter[3].ppp[32].queue 	"packets dropped by queue" 	0
scalar InetUnderlayNetwork.backboneRouter[3].ppp[33].queue 	"packets received by queue" 	0
scalar InetUnderlayNetwork.backboneRouter[3].ppp[33].queue 	"packets dropped by queue" 	0
scalar InetUnderlayNetwork.backboneRouter[3].ppp[34].queue 	"packets received by queue" 	4832
scalar InetUnderlayNetwork.backboneRouter[3].ppp[34].queue 	"packets dropped by queue" 	0
scalar InetUnderlayNetwork.backboneRouter[3].ppp[35].queue 	"packets received by queue" 	142
scalar InetUnderlayNetwork.backboneRouter[3].ppp[35].queue 	"packets dropped by queue" 	0
scalar InetUnderlayNetwork.backboneRouter[3].ppp[36].queue 	"packets received by queue" 	0
scalar InetUnderlayNetwork.backboneRouter[3].ppp[36].queue 	"packets dropped by queue" 	0
scalar InetUnderlayNetwork.backboneRouter[3].ppp[37].queue 	"packets received by queue" 	0
scalar InetUnderlayNetwork.backboneRouter[3].ppp[37].queue 	"packets dropped by queue" 	0
scalar InetUnderlayNetwork.backboneRouter[3].ppp[38].queue 	"packets received by queue" 	306
scalar InetUnderlayNetwork.backboneRouter[3].ppp[38].queue 	"packets dropped by queue" 	0
scalar InetUnderlayNetwork.backboneRouter[3].ppp[39].queue 	"packets received by queue" 	0
scalar InetUnderlayNetwork.backboneRouter[3].ppp[39].queue 	"packets dropped by queue" 	0
scalar InetUnderlayNetwork.backboneRouter[3].ppp[40].queue 	"packets received by queue" 	6304
scalar InetUnderlayNetwork.backboneRouter[3].ppp[40].queue 	"packets dropped by queue" 	0
scalar InetUnderlayNetwork.backboneRouter[3].ppp[41].queue 	"packets received by queue" 	0
scalar InetUnderlayNetwork.backboneRouter[3].ppp[41].queue 	"packets dropped by queue" 	0
scalar InetUnderlayNetwork.backboneRouter[4].networkLayer.arp 	"ARP requests sent" 	0
scalar InetUnderlayNetwork.backboneRouter[4].networkLayer.arp 	"ARP replies sent" 	0
scalar InetUnderlayNetwork.backboneRouter[4].networkLayer.arp 	"ARP resolutions" 	0
scalar InetUnderlayNetwork.backboneRouter[4].networkLayer.arp 	"failed ARP resolutions" 	0
scalar InetUnderlayNetwork.backboneRouter[4].ppp[0].queue 	"packets received by queue" 	429
scalar InetUnderlayNetwork.backboneRouter[4].ppp[0].queue 	"packets dropped by queue" 	0
scalar InetUnderlayNetwork.backboneRouter[4].ppp[1].queue 	"packets received by queue" 	0
scalar InetUnderlayNetwork.backboneRouter[4].ppp[1].queue 	"packets dropped by queue" 	0
scalar InetUnderlayNetwork.backboneRouter[4].ppp[2].queue 	"packets received by queue" 	1
scalar InetUnderlayNetwork.backboneRouter[4].ppp[2].queue 	"packets dropped by queue" 	0
scalar InetUnderlayNetwork.backboneRouter[4].ppp[3].queue 	"packets received by queue" 	6110
scalar InetUnderlayNetwork.backboneRouter[4].ppp[3].queue 	"packets dropped by queue" 	0
scalar InetUnderlayNetwork.backboneRouter[4].ppp[4].queue 	"packets received by queue" 	0
scalar InetUnderlayNetwork.backboneRouter[4].ppp[4].queue 	"packets dropped by queue" 	0
scalar InetUnderlayNetwork.backboneRouter[4].ppp[5].queue 	"packets received by queue" 	0
scalar InetUnderlayNetwork.backboneRouter[4].ppp[5].queue 	"packets dropped by queue" 	0
scalar InetUnderlayNetwork.backboneRouter[4].ppp[6].queue 	"packets received by queue" 	0
scalar InetUnderlayNetwork.backboneRouter[4].ppp[6].queue 	"packets dropped by queue" 	0
scalar InetUnderlayNetwork.backboneRouter[4].ppp[7].queue 	"packets received by queue" 	0
scalar InetUnderlayNetwork.backboneRouter[4].ppp[7].queue 	"packets dropped by queue" 	0
scalar InetUnderlayNetwork.backboneRouter[4].ppp[8].queue 	"packets received by queue" 	189
scalar InetUnderlayNetwork.backboneRouter[4].ppp[8].queue 	"packets dropped by queue" 	0
scalar InetUnderlayNetwork.backboneRouter[4].ppp[9].queue 	"packets received by queue" 	0
scalar InetUnderlayNetwork.backboneRouter[4].ppp[9].queue 	"packets dropped by queue" 	0
scalar InetUnderlayNetwork.backboneRouter[4].ppp[10].queue 	"packets received by queue" 	0
scalar InetUnderlayNetwork.backboneRouter[4].ppp[10].queue 	"packets dropped by queue" 	0
scalar InetUnderlayNetwork.backboneRouter[4].ppp[11].queue 	"packets received by queue" 	0
scalar InetUnderlayNetwork.backboneRouter[4].ppp[11].queue 	"packets dropped by queue" 	0
scalar InetUnderlayNetwork.backboneRouter[4].ppp[12].queue 	"packets received by queue" 	0
scalar InetUnderlayNetwork.backboneRouter[4].ppp[12].queue 	"packets dropped by queue" 	0
scalar InetUnderlayNetwork.backboneRouter[4].ppp[13].queue 	"packets received by queue" 	0
scalar InetUnderlayNetwork.backboneRouter[4].ppp[13].queue 	"packets dropped by queue" 	0
scalar InetUnderlayNetwork.backboneRouter[4].ppp[14].queue 	"packets received by queue" 	0
scalar InetUnderlayNetwork.backboneRouter[4].ppp[14].queue 	"packets dropped by queue" 	0
scalar InetUnderlayNetwork.backboneRouter[4].ppp[15].queue 	"packets received by queue" 	0
scalar InetUnderlayNetwork.backboneRouter[4].ppp[15].queue 	"packets dropped by queue" 	0
scalar InetUnderlayNetwork.backboneRouter[4].ppp[16].queue 	"packets received by queue" 	0
scalar InetUnderlayNetwork.backboneRouter[4].ppp[16].queue 	"packets dropped by queue" 	0
scalar InetUnderlayNetwork.backboneRouter[4].ppp[17].queue 	"packets received by queue" 	0
scalar InetUnderlayNetwork.backboneRouter[4].ppp[17].queue 	"packets dropped by queue" 	0
scalar InetUnderlayNetwork.backboneRouter[4].ppp[18].queue 	"packets received by queue" 	0
scalar InetUnderlayNetwork.backboneRouter[4].ppp[18].queue 	"packets dropped by queue" 	0
scalar InetUnderlayNetwork.backboneRouter[4].ppp[19].queue 	"packets received by queue" 	0
scalar InetUnderlayNetwork.backboneRouter[4].ppp[19].queue 	"packets dropped by queue" 	0
scalar InetUnderlayNetwork.backboneRouter[4].ppp[20].queue 	"packets received by queue" 	0
scalar InetUnderlayNetwork.backboneRouter[4].ppp[20].queue 	"packets dropped by queue" 	0
scalar InetUnderlayNetwork.backboneRouter[4].ppp[21].queue 	"packets received by queue" 	0
scalar InetUnderlayNetwork.backboneRouter[4].ppp[21].queue 	"packets dropped by queue" 	0
scalar InetUnderlayNetwork.backboneRouter[4].ppp[22].queue 	"packets received by queue" 	0
scalar InetUnderlayNetwork.backboneRouter[4].ppp[22].queue 	"packets dropped by queue" 	0
scalar InetUnderlayNetwork.backboneRouter[4].ppp[23].queue 	"packets received by queue" 	0
scalar InetUnderlayNetwork.backboneRouter[4].ppp[23].queue 	"packets dropped by queue" 	0
scalar InetUnderlayNetwork.backboneRouter[4].ppp[24].queue 	"packets received by queue" 	0
scalar InetUnderlayNetwork.backboneRouter[4].ppp[24].queue 	"packets dropped by queue" 	0
scalar InetUnderlayNetwork.backboneRouter[4].ppp[25].queue 	"packets received by queue" 	0
scalar InetUnderlayNetwork.backboneRouter[4].ppp[25].queue 	"packets dropped by queue" 	0
scalar InetUnderlayNetwork.backboneRouter[4].ppp[26].queue 	"packets received by queue" 	0
scalar InetUnderlayNetwork.backboneRouter[4].ppp[26].queue 	"packets dropped by queue" 	0
scalar InetUnderlayNetwork.backboneRouter[4].ppp[27].queue 	"packets received by queue" 	0
scalar InetUnderlayNetwork.backboneRouter[4].ppp[27].queue 	"packets dropped by queue" 	0
scalar InetUnderlayNetwork.backboneRouter[4].ppp[28].queue 	"packets received by queue" 	0
scalar InetUnderlayNetwork.backboneRouter[4].ppp[28].queue 	"packets dropped by queue" 	0
scalar InetUnderlayNetwork.backboneRouter[4].ppp[29].queue 	"packets received by queue" 	0
scalar InetUnderlayNetwork.backboneRouter[4].ppp[29].queue 	"packets dropped by queue" 	0
scalar InetUnderlayNetwork.backboneRouter[4].ppp[30].queue 	"packets received by queue" 	0
scalar InetUnderlayNetwork.backboneRouter[4].ppp[30].queue 	"packets dropped by queue" 	0
scalar InetUnderlayNetwork.backboneRouter[4].ppp[31].queue 	"packets received by queue" 	0
scalar InetUnderlayNetwork.backboneRouter[4].ppp[31].queue 	"packets dropped by queue" 	0
scalar InetUnderlayNetwork.backboneRouter[4].ppp[32].queue 	"packets received by queue" 	0
scalar InetUnderlayNetwork.backboneRouter[4].ppp[32].queue 	"packets dropped by queue" 	0
scalar InetUnderlayNetwork.backboneRouter[4].ppp[33].queue 	"packets received by queue" 	266
scalar InetUnderlayNetwork.backboneRouter[4].ppp[33].queue 	"packets dropped by queue" 	0
scalar InetUnderlayNetwork.backboneRouter[4].ppp[34].queue 	"packets received by queue" 	0
scalar InetUnderlayNetwork.backboneRouter[4].ppp[34].queue 	"packets dropped by queue" 	0
scalar InetUnderlayNetwork.backboneRouter[4].ppp[35].queue 	"packets received by queue" 	0
scalar InetUnderlayNetwork.backboneRouter[4].ppp[35].queue 	"packets dropped by queue" 	0
scalar InetUnderlayNetwork.backboneRouter[4].ppp[36].queue 	"packets received by queue" 	0
scalar InetUnderlayNetwork.backboneRouter[4].ppp[36].queue 	"packets dropped by queue" 	0
scalar InetUnderlayNetwork.backboneRouter[4].ppp[37].queue 	"packets received by queue" 	0
scalar InetUnderlayNetwork.backboneRouter[4].ppp[37].queue 	"packets dropped by queue" 	0
scalar InetUnderlayNetwork.backboneRouter[4].ppp[38].queue 	"packets received by queue" 	0
scalar InetUnderlayNetwork.backboneRouter[4].ppp[38].queue 	"packets dropped by queue" 	0
scalar InetUnderlayNetwork.backboneRouter[4].ppp[39].queue 	"packets received by queue" 	0
scalar InetUnderlayNetwork.backboneRouter[4].ppp[39].queue 	"packets dropped by queue" 	0
scalar InetUnderlayNetwork.backboneRouter[4].ppp[40].queue 	"packets received by queue" 	0
scalar InetUnderlayNetwork.backboneRouter[4].ppp[40].queue 	"packets dropped by queue" 	0
scalar InetUnderlayNetwork.backboneRouter[4].ppp[41].queue 	"packets received by queue" 	0
scalar InetUnderlayNetwork.backboneRouter[4].ppp[41].queue 	"packets dropped by queue" 	0
scalar InetUnderlayNetwork.backboneRouter[4].ppp[42].queue 	"packets received by queue" 	0
scalar InetUnderlayNetwork.backboneRouter[4].ppp[42].queue 	"packets dropped by queue" 	0
scalar InetUnderlayNetwork.backboneRouter[4].ppp[43].queue 	"packets received by queue" 	0
scalar InetUnderlayNetwork.backboneRouter[4].ppp[43].queue 	"packets dropped by queue" 	0
scalar InetUnderlayNetwork.backboneRouter[5].networkLayer.arp 	"ARP requests sent" 	0
scalar InetUnderlayNetwork.backboneRouter[5].networkLayer.arp 	"ARP replies sent" 	0
scalar InetUnderlayNetwork.backboneRouter[5].networkLayer.arp 	"ARP resolutions" 	0
scalar InetUnderlayNetwork.backboneRouter[5].networkLayer.arp 	"failed ARP resolutions" 	0
scalar InetUnderlayNetwork.backboneRouter[5].ppp[0].queue 	"packets received by queue" 	0
scalar InetUnderlayNetwork.backboneRouter[5].ppp[0].queue 	"packets dropped by queue" 	0
scalar InetUnderlayNetwork.backboneRouter[5].ppp[1].queue 	"packets received by queue" 	0
scalar InetUnderlayNetwork.backboneRouter[5].ppp[1].queue 	"packets dropped by queue" 	0
scalar InetUnderlayNetwork.backboneRouter[5].ppp[2].queue 	"packets received by queue" 	0
scalar InetUnderlayNetwork.backboneRouter[5].ppp[2].queue 	"packets dropped by queue" 	0
scalar InetUnderlayNetwork.backboneRouter[5].ppp[3].queue 	"packets received by queue" 	0
scalar InetUnderlayNetwork.backboneRouter[5].ppp[3].queue 	"packets dropped by queue" 	0
scalar InetUnderlayNetwork.backboneRouter[5].ppp[4].queue 	"packets received by queue" 	0
scalar InetUnderlayNetwork.backboneRouter[5].ppp[4].queue 	"packets dropped by queue" 	0
scalar InetUnderlayNetwork.backboneRouter[5].ppp[5].queue 	"packets received by queue" 	0
scalar InetUnderlayNetwork.backboneRouter[5].ppp[5].queue 	"packets dropped by queue" 	0
scalar InetUnderlayNetwork.backboneRouter[5].ppp[6].queue 	"packets received by queue" 	0
scalar InetUnderlayNetwork.backboneRouter[5].ppp[6].queue 	"packets dropped by queue" 	0
scalar InetUnderlayNetwork.backboneRouter[5].ppp[7].queue 	"packets received by queue" 	0
scalar InetUnderlayNetwork.backboneRouter[5].ppp[7].queue 	"packets dropped by queue" 	0
scalar InetUnderlayNetwork.backboneRouter[5].ppp[8].queue 	"packets received by queue" 	0
scalar InetUnderlayNetwork.backboneRouter[5].ppp[8].queue 	"packets dropped by queue" 	0
scalar InetUnderlayNetwork.backboneRouter[5].ppp[9].queue 	"packets received by queue" 	0
scalar InetUnderlayNetwork.backboneRouter[5].ppp[9].queue 	"packets dropped by queue" 	0
scalar InetUnderlayNetwork.backboneRouter[5].ppp[10].queue 	"packets received by queue" 	0
scalar InetUnderlayNetwork.backboneRouter[5].ppp[10].queue 	"packets dropped by queue" 	0
scalar InetUnderlayNetwork.backboneRouter[5].ppp[11].queue 	"packets received by queue" 	0
scalar InetUnderlayNetwork.backboneRouter[5].ppp[11].queue 	"packets dropped by queue" 	0
scalar InetUnderlayNetwork.backboneRouter[5].ppp[12].queue 	"packets received by queue" 	0
scalar InetUnderlayNetwork.backboneRouter[5].ppp[12].queue 	"packets dropped by queue" 	0
scalar InetUnderlayNetwork.backboneRouter[5].ppp[13].queue 	"packets received by queue" 	0
scalar InetUnderlayNetwork.backboneRouter[5].ppp[13].queue 	"packets dropped by queue" 	0
scalar InetUnderlayNetwork.backboneRouter[5].ppp[14].queue 	"packets received by queue" 	0
scalar InetUnderlayNetwork.backboneRouter[5].ppp[14].queue 	"packets dropped by queue" 	0
scalar InetUnderlayNetwork.backboneRouter[5].ppp[15].queue 	"packets received by queue" 	0
scalar InetUnderlayNetwork.backboneRouter[5].ppp[15].queue 	"packets dropped by queue" 	0
scalar InetUnderlayNetwork.backboneRouter[5].ppp[16].queue 	"packets received by queue" 	0
scalar InetUnderlayNetwork.backboneRouter[5].ppp[16].queue 	"packets dropped by queue" 	0
scalar InetUnderlayNetwork.backboneRouter[5].ppp[17].queue 	"packets received by queue" 	0
scalar InetUnderlayNetwork.backboneRouter[5].ppp[17].queue 	"packets dropped by queue" 	0
scalar InetUnderlayNetwork.backboneRouter[5].ppp[18].queue 	"packets received by queue" 	0
scalar InetUnderlayNetwork.backboneRouter[5].ppp[18].queue 	"packets dropped by queue" 	0
scalar InetUnderlayNetwork.backboneRouter[5].ppp[19].queue 	"packets received by queue" 	0
scalar InetUnderlayNetwork.backboneRouter[5].ppp[19].queue 	"packets dropped by queue" 	0
scalar InetUnderlayNetwork.backboneRouter[5].ppp[20].queue 	"packets received by queue" 	0
scalar InetUnderlayNetwork.backboneRouter[5].ppp[20].queue 	"packets dropped by queue" 	0
scalar InetUnderlayNetwork.backboneRouter[5].ppp[21].queue 	"packets received by queue" 	0
scalar InetUnderlayNetwork.backboneRouter[5].ppp[21].queue 	"packets dropped by queue" 	0
scalar InetUnderlayNetwork.backboneRouter[5].ppp[22].queue 	"packets received by queue" 	0
scalar InetUnderlayNetwork.backboneRouter[5].ppp[22].queue 	"packets dropped by queue" 	0
scalar InetUnderlayNetwork.backboneRouter[5].ppp[23].queue 	"packets received by queue" 	0
scalar InetUnderlayNetwork.backboneRouter[5].ppp[23].queue 	"packets dropped by queue" 	0
scalar InetUnderlayNetwork.backboneRouter[5].ppp[24].queue 	"packets received by queue" 	0
scalar InetUnderlayNetwork.backboneRouter[5].ppp[24].queue 	"packets dropped by queue" 	0
scalar InetUnderlayNetwork.backboneRouter[5].ppp[25].queue 	"packets received by queue" 	0
scalar InetUnderlayNetwork.backboneRouter[5].ppp[25].queue 	"packets dropped by queue" 	0
scalar InetUnderlayNetwork.backboneRouter[5].ppp[26].queue 	"packets received by queue" 	0
scalar InetUnderlayNetwork.backboneRouter[5].ppp[26].queue 	"packets dropped by queue" 	0
scalar InetUnderlayNetwork.backboneRouter[5].ppp[27].queue 	"packets received by queue" 	0
scalar InetUnderlayNetwork.backboneRouter[5].ppp[27].queue 	"packets dropped by queue" 	0
scalar InetUnderlayNetwork.backboneRouter[5].ppp[28].queue 	"packets received by queue" 	0
scalar InetUnderlayNetwork.backboneRouter[5].ppp[28].queue 	"packets dropped by queue" 	0
scalar InetUnderlayNetwork.backboneRouter[5].ppp[29].queue 	"packets received by queue" 	0
scalar InetUnderlayNetwork.backboneRouter[5].ppp[29].queue 	"packets dropped by queue" 	0
scalar InetUnderlayNetwork.backboneRouter[5].ppp[30].queue 	"packets received by queue" 	0
scalar InetUnderlayNetwork.backboneRouter[5].ppp[30].queue 	"packets dropped by queue" 	0
scalar InetUnderlayNetwork.backboneRouter[5].ppp[31].queue 	"packets received by queue" 	0
scalar InetUnderlayNetwork.backboneRouter[5].ppp[31].queue 	"packets dropped by queue" 	0
scalar InetUnderlayNetwork.backboneRouter[5].ppp[32].queue 	"packets received by queue" 	0
scalar InetUnderlayNetwork.backboneRouter[5].ppp[32].queue 	"packets dropped by queue" 	0
scalar InetUnderlayNetwork.backboneRouter[5].ppp[33].queue 	"packets received by queue" 	0
scalar InetUnderlayNetwork.backboneRouter[5].ppp[33].queue 	"packets dropped by queue" 	0
scalar InetUnderlayNetwork.backboneRouter[5].ppp[34].queue 	"packets received by queue" 	0
scalar InetUnderlayNetwork.backboneRouter[5].ppp[34].queue 	"packets dropped by queue" 	0
scalar InetUnderlayNetwork.backboneRouter[5].ppp[35].queue 	"packets received by queue" 	0
scalar InetUnderlayNetwork.backboneRouter[5].ppp[35].queue 	"packets dropped by queue" 	0
scalar InetUnderlayNetwork.backboneRouter[5].ppp[36].queue 	"packets received by queue" 	0
scalar InetUnderlayNetwork.backboneRouter[5].ppp[36].queue 	"packets dropped by queue" 	0
scalar InetUnderlayNetwork.backboneRouter[5].ppp[37].queue 	"packets received by queue" 	0
scalar InetUnderlayNetwork.backboneRouter[5].ppp[37].queue 	"packets dropped by queue" 	0
scalar InetUnderlayNetwork.backboneRouter[5].ppp[38].queue 	"packets received by queue" 	0
scalar InetUnderlayNetwork.backboneRouter[5].ppp[38].queue 	"packets dropped by queue" 	0
scalar InetUnderlayNetwork.backboneRouter[5].ppp[39].queue 	"packets received by queue" 	0
scalar InetUnderlayNetwork.backboneRouter[5].ppp[39].queue 	"packets dropped by queue" 	0
scalar InetUnderlayNetwork.backboneRouter[5].ppp[40].queue 	"packets received by queue" 	0
scalar InetUnderlayNetwork.backboneRouter[5].ppp[40].queue 	"packets dropped by queue" 	0
scalar InetUnderlayNetwork.backboneRouter[5].ppp[41].queue 	"packets received by queue" 	0
scalar InetUnderlayNetwork.backboneRouter[5].ppp[41].queue 	"packets dropped by queue" 	0
scalar InetUnderlayNetwork.backboneRouter[5].ppp[42].queue 	"packets received by queue" 	0
scalar InetUnderlayNetwork.backboneRouter[5].ppp[42].queue 	"packets dropped by queue" 	0
scalar InetUnderlayNetwork.backboneRouter[5].ppp[43].queue 	"packets received by queue" 	0
scalar InetUnderlayNetwork.backboneRouter[5].ppp[43].queue 	"packets dropped by queue" 	0
scalar InetUnderlayNetwork.backboneRouter[5].ppp[44].queue 	"packets received by queue" 	0
scalar InetUnderlayNetwork.backboneRouter[5].ppp[44].queue 	"packets dropped by queue" 	0
scalar InetUnderlayNetwork.backboneRouter[5].ppp[45].queue 	"packets received by queue" 	0
scalar InetUnderlayNetwork.backboneRouter[5].ppp[45].queue 	"packets dropped by queue" 	0
scalar InetUnderlayNetwork.backboneRouter[6].networkLayer.arp 	"ARP requests sent" 	0
scalar InetUnderlayNetwork.backboneRouter[6].networkLayer.arp 	"ARP replies sent" 	0
scalar InetUnderlayNetwork.backboneRouter[6].networkLayer.arp 	"ARP resolutions" 	0
scalar InetUnderlayNetwork.backboneRouter[6].networkLayer.arp 	"failed ARP resolutions" 	0
scalar InetUnderlayNetwork.backboneRouter[6].ppp[0].queue 	"packets received by queue" 	0
scalar InetUnderlayNetwork.backboneRouter[6].ppp[0].queue 	"packets dropped by queue" 	0
scalar InetUnderlayNetwork.backboneRouter[6].ppp[1].queue 	"packets received by queue" 	0
scalar InetUnderlayNetwork.backboneRouter[6].ppp[1].queue 	"packets dropped by queue" 	0
scalar InetUnderlayNetwork.backboneRouter[6].ppp[2].queue 	"packets received by queue" 	0
scalar InetUnderlayNetwork.backboneRouter[6].ppp[2].queue 	"packets dropped by queue" 	0
scalar InetUnderlayNetwork.backboneRouter[6].ppp[3].queue 	"packets received by queue" 	0
scalar InetUnderlayNetwork.backboneRouter[6].ppp[3].queue 	"packets dropped by queue" 	0
scalar InetUnderlayNetwork.backboneRouter[6].ppp[4].queue 	"packets received by queue" 	0
scalar InetUnderlayNetwork.backboneRouter[6].ppp[4].queue 	"packets dropped by queue" 	0
scalar InetUnderlayNetwork.backboneRouter[6].ppp[5].queue 	"packets received by queue" 	0
scalar InetUnderlayNetwork.backboneRouter[6].ppp[5].queue 	"packets dropped by queue" 	0
scalar InetUnderlayNetwork.backboneRouter[6].ppp[6].queue 	"packets received by queue" 	0
scalar InetUnderlayNetwork.backboneRouter[6].ppp[6].queue 	"packets dropped by queue" 	0
scalar InetUnderlayNetwork.backboneRouter[6].ppp[7].queue 	"packets received by queue" 	0
scalar InetUnderlayNetwork.backboneRouter[6].ppp[7].queue 	"packets dropped by queue" 	0
scalar InetUnderlayNetwork.backboneRouter[6].ppp[8].queue 	"packets received by queue" 	0
scalar InetUnderlayNetwork.backboneRouter[6].ppp[8].queue 	"packets dropped by queue" 	0
scalar InetUnderlayNetwork.backboneRouter[6].ppp[9].queue 	"packets received by queue" 	0
scalar InetUnderlayNetwork.backboneRouter[6].ppp[9].queue 	"packets dropped by queue" 	0
scalar InetUnderlayNetwork.backboneRouter[6].ppp[10].queue 	"packets received by queue" 	0
scalar InetUnderlayNetwork.backboneRouter[6].ppp[10].queue 	"packets dropped by queue" 	0
scalar InetUnderlayNetwork.backboneRouter[6].ppp[11].queue 	"packets received by queue" 	0
scalar InetUnderlayNetwork.backboneRouter[6].ppp[11].queue 	"packets dropped by queue" 	0
scalar InetUnderlayNetwork.backboneRouter[6].ppp[12].queue 	"packets received by queue" 	0
scalar InetUnderlayNetwork.backboneRouter[6].ppp[12].queue 	"packets dropped by queue" 	0
scalar InetUnderlayNetwork.backboneRouter[6].ppp[13].queue 	"packets received by queue" 	0
scalar InetUnderlayNetwork.backboneRouter[6].ppp[13].queue 	"packets dropped by queue" 	0
scalar InetUnderlayNetwork.backboneRouter[6].ppp[14].queue 	"packets received by queue" 	0
scalar InetUnderlayNetwork.backboneRouter[6].ppp[14].queue 	"packets dropped by queue" 	0
scalar InetUnderlayNetwork.backboneRouter[6].ppp[15].queue 	"packets received by queue" 	0
scalar InetUnderlayNetwork.backboneRouter[6].ppp[15].queue 	"packets dropped by queue" 	0
scalar InetUnderlayNetwork.backboneRouter[6].ppp[16].queue 	"packets received by queue" 	0
scalar InetUnderlayNetwork.backboneRouter[6].ppp[16].queue 	"packets dropped by queue" 	0
scalar InetUnderlayNetwork.backboneRouter[6].ppp[17].queue 	"packets received by queue" 	0
scalar InetUnderlayNetwork.backboneRouter[6].ppp[17].queue 	"packets dropped by queue" 	0
scalar InetUnderlayNetwork.backboneRouter[6].ppp[18].queue 	"packets received by queue" 	0
scalar InetUnderlayNetwork.backboneRouter[6].ppp[18].queue 	"packets dropped by queue" 	0
scalar InetUnderlayNetwork.backboneRouter[6].ppp[19].queue 	"packets received by queue" 	0
scalar InetUnderlayNetwork.backboneRouter[6].ppp[19].queue 	"packets dropped by queue" 	0
scalar InetUnderlayNetwork.backboneRouter[6].ppp[20].queue 	"packets received by queue" 	0
scalar InetUnderlayNetwork.backboneRouter[6].ppp[20].queue 	"packets dropped by queue" 	0
scalar InetUnderlayNetwork.backboneRouter[6].ppp[21].queue 	"packets received by queue" 	0
scalar InetUnderlayNetwork.backboneRouter[6].ppp[21].queue 	"packets dropped by queue" 	0
scalar InetUnderlayNetwork.backboneRouter[6].ppp[22].queue 	"packets received by queue" 	0
scalar InetUnderlayNetwork.backboneRouter[6].ppp[22].queue 	"packets dropped by queue" 	0
scalar InetUnderlayNetwork.backboneRouter[6].ppp[23].queue 	"packets received by queue" 	0
scalar InetUnderlayNetwork.backboneRouter[6].ppp[23].queue 	"packets dropped by queue" 	0
scalar InetUnderlayNetwork.backboneRouter[6].ppp[24].queue 	"packets received by queue" 	0
scalar InetUnderlayNetwork.backboneRouter[6].ppp[24].queue 	"packets dropped by queue" 	0
scalar InetUnderlayNetwork.backboneRouter[6].ppp[25].queue 	"packets received by queue" 	0
scalar InetUnderlayNetwork.backboneRouter[6].ppp[25].queue 	"packets dropped by queue" 	0
scalar InetUnderlayNetwork.backboneRouter[6].ppp[26].queue 	"packets received by queue" 	0
scalar InetUnderlayNetwork.backboneRouter[6].ppp[26].queue 	"packets dropped by queue" 	0
scalar InetUnderlayNetwork.backboneRouter[6].ppp[27].queue 	"packets received by queue" 	0
scalar InetUnderlayNetwork.backboneRouter[6].ppp[27].queue 	"packets dropped by queue" 	0
scalar InetUnderlayNetwork.backboneRouter[6].ppp[28].queue 	"packets received by queue" 	0
scalar InetUnderlayNetwork.backboneRouter[6].ppp[28].queue 	"packets dropped by queue" 	0
scalar InetUnderlayNetwork.backboneRouter[6].ppp[29].queue 	"packets received by queue" 	0
scalar InetUnderlayNetwork.backboneRouter[6].ppp[29].queue 	"packets dropped by queue" 	0
scalar InetUnderlayNetwork.backboneRouter[6].ppp[30].queue 	"packets received by queue" 	0
scalar InetUnderlayNetwork.backboneRouter[6].ppp[30].queue 	"packets dropped by queue" 	0
scalar InetUnderlayNetwork.backboneRouter[6].ppp[31].queue 	"packets received by queue" 	0
scalar InetUnderlayNetwork.backboneRouter[6].ppp[31].queue 	"packets dropped by queue" 	0
scalar InetUnderlayNetwork.backboneRouter[6].ppp[32].queue 	"packets received by queue" 	0
scalar InetUnderlayNetwork.backboneRouter[6].ppp[32].queue 	"packets dropped by queue" 	0
scalar InetUnderlayNetwork.backboneRouter[6].ppp[33].queue 	"packets received by queue" 	0
scalar InetUnderlayNetwork.backboneRouter[6].ppp[33].queue 	"packets dropped by queue" 	0
scalar InetUnderlayNetwork.backboneRouter[6].ppp[34].queue 	"packets received by queue" 	0
scalar InetUnderlayNetwork.backboneRouter[6].ppp[34].queue 	"packets dropped by queue" 	0
scalar InetUnderlayNetwork.backboneRouter[6].ppp[35].queue 	"packets received by queue" 	0
scalar InetUnderlayNetwork.backboneRouter[6].ppp[35].queue 	"packets dropped by queue" 	0
scalar InetUnderlayNetwork.backboneRouter[6].ppp[36].queue 	"packets received by queue" 	0
scalar InetUnderlayNetwork.backboneRouter[6].ppp[36].queue 	"packets dropped by queue" 	0
scalar InetUnderlayNetwork.backboneRouter[6].ppp[37].queue 	"packets received by queue" 	0
scalar InetUnderlayNetwork.backboneRouter[6].ppp[37].queue 	"packets dropped by queue" 	0
scalar InetUnderlayNetwork.backboneRouter[6].ppp[38].queue 	"packets received by queue" 	0
scalar InetUnderlayNetwork.backboneRouter[6].ppp[38].queue 	"packets dropped by queue" 	0
scalar InetUnderlayNetwork.backboneRouter[6].ppp[39].queue 	"packets received by queue" 	0
scalar InetUnderlayNetwork.backboneRouter[6].ppp[39].queue 	"packets dropped by queue" 	0
scalar InetUnderlayNetwork.backboneRouter[6].ppp[40].queue 	"packets received by queue" 	0
scalar InetUnderlayNetwork.backboneRouter[6].ppp[40].queue 	"packets dropped by queue" 	0
scalar InetUnderlayNetwork.backboneRouter[6].ppp[41].queue 	"packets received by queue" 	0
scalar InetUnderlayNetwork.backboneRouter[6].ppp[41].queue 	"packets dropped by queue" 	0
scalar InetUnderlayNetwork.backboneRouter[6].ppp[42].queue 	"packets received by queue" 	0
scalar InetUnderlayNetwork.backboneRouter[6].ppp[42].queue 	"packets dropped by queue" 	0
scalar InetUnderlayNetwork.backboneRouter[6].ppp[43].queue 	"packets received by queue" 	0
scalar InetUnderlayNetwork.backboneRouter[6].ppp[43].queue 	"packets dropped by queue" 	0
scalar InetUnderlayNetwork.backboneRouter[6].ppp[44].queue 	"packets received by queue" 	0
scalar InetUnderlayNetwork.backboneRouter[6].ppp[44].queue 	"packets dropped by queue" 	0
scalar InetUnderlayNetwork.backboneRouter[7].networkLayer.arp 	"ARP requests sent" 	0
scalar InetUnderlayNetwork.backboneRouter[7].networkLayer.arp 	"ARP replies sent" 	0
scalar InetUnderlayNetwork.backboneRouter[7].networkLayer.arp 	"ARP resolutions" 	0
scalar InetUnderlayNetwork.backboneRouter[7].networkLayer.arp 	"failed ARP resolutions" 	0
scalar InetUnderlayNetwork.backboneRouter[7].ppp[0].queue 	"packets received by queue" 	0
scalar InetUnderlayNetwork.backboneRouter[7].ppp[0].queue 	"packets dropped by queue" 	0
scalar InetUnderlayNetwork.backboneRouter[7].ppp[1].queue 	"packets received by queue" 	0
scalar InetUnderlayNetwork.backboneRouter[7].ppp[1].queue 	"packets dropped by queue" 	0
scalar InetUnderlayNetwork.backboneRouter[7].ppp[2].queue 	"packets received by queue" 	0
scalar InetUnderlayNetwork.backboneRouter[7].ppp[2].queue 	"packets dropped by queue" 	0
scalar InetUnderlayNetwork.backboneRouter[7].ppp[3].queue 	"packets received by queue" 	0
scalar InetUnderlayNetwork.backboneRouter[7].ppp[3].queue 	"packets dropped by queue" 	0
scalar InetUnderlayNetwork.backboneRouter[7].ppp[4].queue 	"packets received by queue" 	0
scalar InetUnderlayNetwork.backboneRouter[7].ppp[4].queue 	"packets dropped by queue" 	0
scalar InetUnderlayNetwork.backboneRouter[7].ppp[5].queue 	"packets received by queue" 	0
scalar InetUnderlayNetwork.backboneRouter[7].ppp[5].queue 	"packets dropped by queue" 	0
scalar InetUnderlayNetwork.backboneRouter[7].ppp[6].queue 	"packets received by queue" 	0
scalar InetUnderlayNetwork.backboneRouter[7].ppp[6].queue 	"packets dropped by queue" 	0
scalar InetUnderlayNetwork.backboneRouter[7].ppp[7].queue 	"packets received by queue" 	0
scalar InetUnderlayNetwork.backboneRouter[7].ppp[7].queue 	"packets dropped by queue" 	0
scalar InetUnderlayNetwork.backboneRouter[7].ppp[8].queue 	"packets received by queue" 	0
scalar InetUnderlayNetwork.backboneRouter[7].ppp[8].queue 	"packets dropped by queue" 	0
scalar InetUnderlayNetwork.backboneRouter[7].ppp[9].queue 	"packets received by queue" 	0
scalar InetUnderlayNetwork.backboneRouter[7].ppp[9].queue 	"packets dropped by queue" 	0
scalar InetUnderlayNetwork.backboneRouter[7].ppp[10].queue 	"packets received by queue" 	0
scalar InetUnderlayNetwork.backboneRouter[7].ppp[10].queue 	"packets dropped by queue" 	0
scalar InetUnderlayNetwork.backboneRouter[7].ppp[11].queue 	"packets received by queue" 	0
scalar InetUnderlayNetwork.backboneRouter[7].ppp[11].queue 	"packets dropped by queue" 	0
scalar InetUnderlayNetwork.backboneRouter[7].ppp[12].queue 	"packets received by queue" 	0
scalar InetUnderlayNetwork.backboneRouter[7].ppp[12].queue 	"packets dropped by queue" 	0
scalar InetUnderlayNetwork.backboneRouter[7].ppp[13].queue 	"packets received by queue" 	0
scalar InetUnderlayNetwork.backboneRouter[7].ppp[13].queue 	"packets dropped by queue" 	0
scalar InetUnderlayNetwork.backboneRouter[7].ppp[14].queue 	"packets received by queue" 	0
scalar InetUnderlayNetwork.backboneRouter[7].ppp[14].queue 	"packets dropped by queue" 	0
scalar InetUnderlayNetwork.backboneRouter[7].ppp[15].queue 	"packets received by queue" 	0
scalar InetUnderlayNetwork.backboneRouter[7].ppp[15].queue 	"packets dropped by queue" 	0
scalar InetUnderlayNetwork.backboneRouter[7].ppp[16].queue 	"packets received by queue" 	0
scalar InetUnderlayNetwork.backboneRouter[7].ppp[16].queue 	"packets dropped by queue" 	0
scalar InetUnderlayNetwork.backboneRouter[7].ppp[17].queue 	"packets received by queue" 	0
scalar InetUnderlayNetwork.backboneRouter[7].ppp[17].queue 	"packets dropped by queue" 	0
scalar InetUnderlayNetwork.backboneRouter[7].ppp[18].queue 	"packets received by queue" 	0
scalar InetUnderlayNetwork.backboneRouter[7].ppp[18].queue 	"packets dropped by queue" 	0
scalar InetUnderlayNetwork.backboneRouter[7].ppp[19].queue 	"packets received by queue" 	0
scalar InetUnderlayNetwork.backboneRouter[7].ppp[19].queue 	"packets dropped by queue" 	0
scalar InetUnderlayNetwork.backboneRouter[7].ppp[20].queue 	"packets received by queue" 	0
scalar InetUnderlayNetwork.backboneRouter[7].ppp[20].queue 	"packets dropped by queue" 	0
scalar InetUnderlayNetwork.backboneRouter[7].ppp[21].queue 	"packets received by queue" 	0
scalar InetUnderlayNetwork.backboneRouter[7].ppp[21].queue 	"packets dropped by queue" 	0
scalar InetUnderlayNetwork.backboneRouter[7].ppp[22].queue 	"packets received by queue" 	0
scalar InetUnderlayNetwork.backboneRouter[7].ppp[22].queue 	"packets dropped by queue" 	0
scalar InetUnderlayNetwork.backboneRouter[7].ppp[23].queue 	"packets received by queue" 	0
scalar InetUnderlayNetwork.backboneRouter[7].ppp[23].queue 	"packets dropped by queue" 	0
scalar InetUnderlayNetwork.backboneRouter[7].ppp[24].queue 	"packets received by queue" 	0
scalar InetUnderlayNetwork.backboneRouter[7].ppp[24].queue 	"packets dropped by queue" 	0
scalar InetUnderlayNetwork.backboneRouter[7].ppp[25].queue 	"packets received by queue" 	0
scalar InetUnderlayNetwork.backboneRouter[7].ppp[25].queue 	"packets dropped by queue" 	0
scalar InetUnderlayNetwork.backboneRouter[7].ppp[26].queue 	"packets received by queue" 	0
scalar InetUnderlayNetwork.backboneRouter[7].ppp[26].queue 	"packets dropped by queue" 	0
scalar InetUnderlayNetwork.backboneRouter[7].ppp[27].queue 	"packets received by queue" 	0
scalar InetUnderlayNetwork.backboneRouter[7].ppp[27].queue 	"packets dropped by queue" 	0
scalar InetUnderlayNetwork.backboneRouter[7].ppp[28].queue 	"packets received by queue" 	0
scalar InetUnderlayNetwork.backboneRouter[7].ppp[28].queue 	"packets dropped by queue" 	0
scalar InetUnderlayNetwork.backboneRouter[7].ppp[29].queue 	"packets received by queue" 	0
scalar InetUnderlayNetwork.backboneRouter[7].ppp[29].queue 	"packets dropped by queue" 	0
scalar InetUnderlayNetwork.backboneRouter[7].ppp[30].queue 	"packets received by queue" 	0
scalar InetUnderlayNetwork.backboneRouter[7].ppp[30].queue 	"packets dropped by queue" 	0
scalar InetUnderlayNetwork.backboneRouter[7].ppp[31].queue 	"packets received by queue" 	0
scalar InetUnderlayNetwork.backboneRouter[7].ppp[31].queue 	"packets dropped by queue" 	0
scalar InetUnderlayNetwork.backboneRouter[7].ppp[32].queue 	"packets received by queue" 	0
scalar InetUnderlayNetwork.backboneRouter[7].ppp[32].queue 	"packets dropped by queue" 	0
scalar InetUnderlayNetwork.backboneRouter[7].ppp[33].queue 	"packets received by queue" 	0
scalar InetUnderlayNetwork.backboneRouter[7].ppp[33].queue 	"packets dropped by queue" 	0
scalar InetUnderlayNetwork.backboneRouter[7].ppp[34].queue 	"packets received by queue" 	0
scalar InetUnderlayNetwork.backboneRouter[7].ppp[34].queue 	"packets dropped by queue" 	0
scalar InetUnderlayNetwork.backboneRouter[7].ppp[35].queue 	"packets received by queue" 	0
scalar InetUnderlayNetwork.backboneRouter[7].ppp[35].queue 	"packets dropped by queue" 	0
scalar InetUnderlayNetwork.backboneRouter[7].ppp[36].queue 	"packets received by queue" 	0
scalar InetUnderlayNetwork.backboneRouter[7].ppp[36].queue 	"packets dropped by queue" 	0
scalar InetUnderlayNetwork.backboneRouter[7].ppp[37].queue 	"packets received by queue" 	0
scalar InetUnderlayNetwork.backboneRouter[7].ppp[37].queue 	"packets dropped by queue" 	0
scalar InetUnderlayNetwork.backboneRouter[7].ppp[38].queue 	"packets received by queue" 	0
scalar InetUnderlayNetwork.backboneRouter[7].ppp[38].queue 	"packets dropped by queue" 	0
scalar InetUnderlayNetwork.backboneRouter[7].ppp[39].queue 	"packets received by queue" 	0
scalar InetUnderlayNetwork.backboneRouter[7].ppp[39].queue 	"packets dropped by queue" 	0
scalar InetUnderlayNetwork.backboneRouter[7].ppp[40].queue 	"packets received by queue" 	0
scalar InetUnderlayNetwork.backboneRouter[7].ppp[40].queue 	"packets dropped by queue" 	0
scalar InetUnderlayNetwork.backboneRouter[7].ppp[41].queue 	"packets received by queue" 	0
scalar InetUnderlayNetwork.backboneRouter[7].ppp[41].queue 	"packets dropped by queue" 	0
scalar InetUnderlayNetwork.backboneRouter[7].ppp[42].queue 	"packets received by queue" 	0
scalar InetUnderlayNetwork.backboneRouter[7].ppp[42].queue 	"packets dropped by queue" 	0
scalar InetUnderlayNetwork.backboneRouter[7].ppp[43].queue 	"packets received by queue" 	0
scalar InetUnderlayNetwork.backboneRouter[7].ppp[43].queue 	"packets dropped by queue" 	0
scalar InetUnderlayNetwork.backboneRouter[7].ppp[44].queue 	"packets received by queue" 	0
scalar InetUnderlayNetwork.backboneRouter[7].ppp[44].queue 	"packets dropped by queue" 	0
scalar InetUnderlayNetwork.backboneRouter[7].ppp[45].queue 	"packets received by queue" 	0
scalar InetUnderlayNetwork.backboneRouter[7].ppp[45].queue 	"packets dropped by queue" 	0
scalar InetUnderlayNetwork.backboneRouter[8].networkLayer.arp 	"ARP requests sent" 	0
scalar InetUnderlayNetwork.backboneRouter[8].networkLayer.arp 	"ARP replies sent" 	0
scalar InetUnderlayNetwork.backboneRouter[8].networkLayer.arp 	"ARP resolutions" 	0
scalar InetUnderlayNetwork.backboneRouter[8].networkLayer.arp 	"failed ARP resolutions" 	0
scalar InetUnderlayNetwork.backboneRouter[8].ppp[0].queue 	"packets received by queue" 	0
scalar InetUnderlayNetwork.backboneRouter[8].ppp[0].queue 	"packets dropped by queue" 	0
scalar InetUnderlayNetwork.backboneRouter[8].ppp[1].queue 	"packets received by queue" 	0
scalar InetUnderlayNetwork.backboneRouter[8].ppp[1].queue 	"packets dropped by queue" 	0
scalar InetUnderlayNetwork.backboneRouter[8].ppp[2].queue 	"packets received by queue" 	0
scalar InetUnderlayNetwork.backboneRouter[8].ppp[2].queue 	"packets dropped by queue" 	0
scalar InetUnderlayNetwork.backboneRouter[8].ppp[3].queue 	"packets received by queue" 	0
scalar InetUnderlayNetwork.backboneRouter[8].ppp[3].queue 	"packets dropped by queue" 	0
scalar InetUnderlayNetwork.backboneRouter[8].ppp[4].queue 	"packets received by queue" 	0
scalar InetUnderlayNetwork.backboneRouter[8].ppp[4].queue 	"packets dropped by queue" 	0
scalar InetUnderlayNetwork.backboneRouter[8].ppp[5].queue 	"packets received by queue" 	0
scalar InetUnderlayNetwork.backboneRouter[8].ppp[5].queue 	"packets dropped by queue" 	0
scalar InetUnderlayNetwork.backboneRouter[8].ppp[6].queue 	"packets received by queue" 	0
scalar InetUnderlayNetwork.backboneRouter[8].ppp[6].queue 	"packets dropped by queue" 	0
scalar InetUnderlayNetwork.backboneRouter[8].ppp[7].queue 	"packets received by queue" 	0
scalar InetUnderlayNetwork.backboneRouter[8].ppp[7].queue 	"packets dropped by queue" 	0
scalar InetUnderlayNetwork.backboneRouter[8].ppp[8].queue 	"packets received by queue" 	0
scalar InetUnderlayNetwork.backboneRouter[8].ppp[8].queue 	"packets dropped by queue" 	0
scalar InetUnderlayNetwork.backboneRouter[8].ppp[9].queue 	"packets received by queue" 	0
scalar InetUnderlayNetwork.backboneRouter[8].ppp[9].queue 	"packets dropped by queue" 	0
scalar InetUnderlayNetwork.backboneRouter[8].ppp[10].queue 	"packets received by queue" 	0
scalar InetUnderlayNetwork.backboneRouter[8].ppp[10].queue 	"packets dropped by queue" 	0
scalar InetUnderlayNetwork.backboneRouter[8].ppp[11].queue 	"packets received by queue" 	0
scalar InetUnderlayNetwork.backboneRouter[8].ppp[11].queue 	"packets dropped by queue" 	0
scalar InetUnderlayNetwork.backboneRouter[8].ppp[12].queue 	"packets received by queue" 	0
scalar InetUnderlayNetwork.backboneRouter[8].ppp[12].queue 	"packets dropped by queue" 	0
scalar InetUnderlayNetwork.backboneRouter[8].ppp[13].queue 	"packets received by queue" 	0
scalar InetUnderlayNetwork.backboneRouter[8].ppp[13].queue 	"packets dropped by queue" 	0
scalar InetUnderlayNetwork.backboneRouter[8].ppp[14].queue 	"packets received by queue" 	0
scalar InetUnderlayNetwork.backboneRouter[8].ppp[14].queue 	"packets dropped by queue" 	0
scalar InetUnderlayNetwork.backboneRouter[8].ppp[15].queue 	"packets received by queue" 	0
scalar InetUnderlayNetwork.backboneRouter[8].ppp[15].queue 	"packets dropped by queue" 	0
scalar InetUnderlayNetwork.backboneRouter[8].ppp[16].queue 	"packets received by queue" 	0
scalar InetUnderlayNetwork.backboneRouter[8].ppp[16].queue 	"packets dropped by queue" 	0
scalar InetUnderlayNetwork.backboneRouter[8].ppp[17].queue 	"packets received by queue" 	0
scalar InetUnderlayNetwork.backboneRouter[8].ppp[17].queue 	"packets dropped by queue" 	0
scalar InetUnderlayNetwork.backboneRouter[8].ppp[18].queue 	"packets received by queue" 	0
scalar InetUnderlayNetwork.backboneRouter[8].ppp[18].queue 	"packets dropped by queue" 	0
scalar InetUnderlayNetwork.backboneRouter[8].ppp[19].queue 	"packets received by queue" 	0
scalar InetUnderlayNetwork.backboneRouter[8].ppp[19].queue 	"packets dropped by queue" 	0
scalar InetUnderlayNetwork.backboneRouter[8].ppp[20].queue 	"packets received by queue" 	0
scalar InetUnderlayNetwork.backboneRouter[8].ppp[20].queue 	"packets dropped by queue" 	0
scalar InetUnderlayNetwork.backboneRouter[8].ppp[21].queue 	"packets received by queue" 	0
scalar InetUnderlayNetwork.backboneRouter[8].ppp[21].queue 	"packets dropped by queue" 	0
scalar InetUnderlayNetwork.backboneRouter[8].ppp[22].queue 	"packets received by queue" 	0
scalar InetUnderlayNetwork.backboneRouter[8].ppp[22].queue 	"packets dropped by queue" 	0
scalar InetUnderlayNetwork.backboneRouter[8].ppp[23].queue 	"packets received by queue" 	0
scalar InetUnderlayNetwork.backboneRouter[8].ppp[23].queue 	"packets dropped by queue" 	0
scalar InetUnderlayNetwork.backboneRouter[8].ppp[24].queue 	"packets received by queue" 	0
scalar InetUnderlayNetwork.backboneRouter[8].ppp[24].queue 	"packets dropped by queue" 	0
scalar InetUnderlayNetwork.backboneRouter[8].ppp[25].queue 	"packets received by queue" 	0
scalar InetUnderlayNetwork.backboneRouter[8].ppp[25].queue 	"packets dropped by queue" 	0
scalar InetUnderlayNetwork.backboneRouter[8].ppp[26].queue 	"packets received by queue" 	0
scalar InetUnderlayNetwork.backboneRouter[8].ppp[26].queue 	"packets dropped by queue" 	0
scalar InetUnderlayNetwork.backboneRouter[8].ppp[27].queue 	"packets received by queue" 	0
scalar InetUnderlayNetwork.backboneRouter[8].ppp[27].queue 	"packets dropped by queue" 	0
scalar InetUnderlayNetwork.backboneRouter[8].ppp[28].queue 	"packets received by queue" 	0
scalar InetUnderlayNetwork.backboneRouter[8].ppp[28].queue 	"packets dropped by queue" 	0
scalar InetUnderlayNetwork.backboneRouter[8].ppp[29].queue 	"packets received by queue" 	0
scalar InetUnderlayNetwork.backboneRouter[8].ppp[29].queue 	"packets dropped by queue" 	0
scalar InetUnderlayNetwork.backboneRouter[8].ppp[30].queue 	"packets received by queue" 	0
scalar InetUnderlayNetwork.backboneRouter[8].ppp[30].queue 	"packets dropped by queue" 	0
scalar InetUnderlayNetwork.backboneRouter[8].ppp[31].queue 	"packets received by queue" 	0
scalar InetUnderlayNetwork.backboneRouter[8].ppp[31].queue 	"packets dropped by queue" 	0
scalar InetUnderlayNetwork.backboneRouter[8].ppp[32].queue 	"packets received by queue" 	0
scalar InetUnderlayNetwork.backboneRouter[8].ppp[32].queue 	"packets dropped by queue" 	0
scalar InetUnderlayNetwork.backboneRouter[8].ppp[33].queue 	"packets received by queue" 	0
scalar InetUnderlayNetwork.backboneRouter[8].ppp[33].queue 	"packets dropped by queue" 	0
scalar InetUnderlayNetwork.backboneRouter[8].ppp[34].queue 	"packets received by queue" 	0
scalar InetUnderlayNetwork.backboneRouter[8].ppp[34].queue 	"packets dropped by queue" 	0
scalar InetUnderlayNetwork.backboneRouter[8].ppp[35].queue 	"packets received by queue" 	0
scalar InetUnderlayNetwork.backboneRouter[8].ppp[35].queue 	"packets dropped by queue" 	0
scalar InetUnderlayNetwork.backboneRouter[8].ppp[36].queue 	"packets received by queue" 	0
scalar InetUnderlayNetwork.backboneRouter[8].ppp[36].queue 	"packets dropped by queue" 	0
scalar InetUnderlayNetwork.backboneRouter[8].ppp[37].queue 	"packets received by queue" 	0
scalar InetUnderlayNetwork.backboneRouter[8].ppp[37].queue 	"packets dropped by queue" 	0
scalar InetUnderlayNetwork.backboneRouter[8].ppp[38].queue 	"packets received by queue" 	0
scalar InetUnderlayNetwork.backboneRouter[8].ppp[38].queue 	"packets dropped by queue" 	0
scalar InetUnderlayNetwork.backboneRouter[8].ppp[39].queue 	"packets received by queue" 	0
scalar InetUnderlayNetwork.backboneRouter[8].ppp[39].queue 	"packets dropped by queue" 	0
scalar InetUnderlayNetwork.backboneRouter[8].ppp[40].queue 	"packets received by queue" 	0
scalar InetUnderlayNetwork.backboneRouter[8].ppp[40].queue 	"packets dropped by queue" 	0
scalar InetUnderlayNetwork.backboneRouter[9].networkLayer.arp 	"ARP requests sent" 	0
scalar InetUnderlayNetwork.backboneRouter[9].networkLayer.arp 	"ARP replies sent" 	0
scalar InetUnderlayNetwork.backboneRouter[9].networkLayer.arp 	"ARP resolutions" 	0
scalar InetUnderlayNetwork.backboneRouter[9].networkLayer.arp 	"failed ARP resolutions" 	0
scalar InetUnderlayNetwork.backboneRouter[9].ppp[0].queue 	"packets received by queue" 	767
scalar InetUnderlayNetwork.backboneRouter[9].ppp[0].queue 	"packets dropped by queue" 	0
scalar InetUnderlayNetwork.backboneRouter[9].ppp[1].queue 	"packets received by queue" 	153
scalar InetUnderlayNetwork.backboneRouter[9].ppp[1].queue 	"packets dropped by queue" 	0
scalar InetUnderlayNetwork.backboneRouter[9].ppp[2].queue 	"packets received by queue" 	0
scalar InetUnderlayNetwork.backboneRouter[9].ppp[2].queue 	"packets dropped by queue" 	0
scalar InetUnderlayNetwork.backboneRouter[9].ppp[3].queue 	"packets received by queue" 	0
scalar InetUnderlayNetwork.backboneRouter[9].ppp[3].queue 	"packets dropped by queue" 	0
scalar InetUnderlayNetwork.backboneRouter[9].ppp[4].queue 	"packets received by queue" 	0
scalar InetUnderlayNetwork.backboneRouter[9].ppp[4].queue 	"packets dropped by queue" 	0
scalar InetUnderlayNetwork.backboneRouter[9].ppp[5].queue 	"packets received by queue" 	0
scalar InetUnderlayNetwork.backboneRouter[9].ppp[5].queue 	"packets dropped by queue" 	0
scalar InetUnderlayNetwork.backboneRouter[9].ppp[6].queue 	"packets received by queue" 	0
scalar InetUnderlayNetwork.backboneRouter[9].ppp[6].queue 	"packets dropped by queue" 	0
scalar InetUnderlayNetwork.backboneRouter[9].ppp[7].queue 	"packets received by queue" 	0
scalar InetUnderlayNetwork.backboneRouter[9].ppp[7].queue 	"packets dropped by queue" 	0
scalar InetUnderlayNetwork.backboneRouter[9].ppp[8].queue 	"packets received by queue" 	0
scalar InetUnderlayNetwork.backboneRouter[9].ppp[8].queue 	"packets dropped by queue" 	0
scalar InetUnderlayNetwork.backboneRouter[9].ppp[9].queue 	"packets received by queue" 	0
scalar InetUnderlayNetwork.backboneRouter[9].ppp[9].queue 	"packets dropped by queue" 	0
scalar InetUnderlayNetwork.backboneRouter[9].ppp[10].queue 	"packets received by queue" 	0
scalar InetUnderlayNetwork.backboneRouter[9].ppp[10].queue 	"packets dropped by queue" 	0
scalar InetUnderlayNetwork.backboneRouter[9].ppp[11].queue 	"packets received by queue" 	0
scalar InetUnderlayNetwork.backboneRouter[9].ppp[11].queue 	"packets dropped by queue" 	0
scalar InetUnderlayNetwork.backboneRouter[9].ppp[12].queue 	"packets received by queue" 	0
scalar InetUnderlayNetwork.backboneRouter[9].ppp[12].queue 	"packets dropped by queue" 	0
scalar InetUnderlayNetwork.backboneRouter[9].ppp[13].queue 	"packets received by queue" 	0
scalar InetUnderlayNetwork.backboneRouter[9].ppp[13].queue 	"packets dropped by queue" 	0
scalar InetUnderlayNetwork.backboneRouter[9].ppp[14].queue 	"packets received by queue" 	0
scalar InetUnderlayNetwork.backboneRouter[9].ppp[14].queue 	"packets dropped by queue" 	0
scalar InetUnderlayNetwork.backboneRouter[9].ppp[15].queue 	"packets received by queue" 	0
scalar InetUnderlayNetwork.backboneRouter[9].ppp[15].queue 	"packets dropped by queue" 	0
scalar InetUnderlayNetwork.backboneRouter[9].ppp[16].queue 	"packets received by queue" 	0
scalar InetUnderlayNetwork.backboneRouter[9].ppp[16].queue 	"packets dropped by queue" 	0
scalar InetUnderlayNetwork.backboneRouter[9].ppp[17].queue 	"packets received by queue" 	0
scalar InetUnderlayNetwork.backboneRouter[9].ppp[17].queue 	"packets dropped by queue" 	0
scalar InetUnderlayNetwork.backboneRouter[9].ppp[18].queue 	"packets received by queue" 	0
scalar InetUnderlayNetwork.backboneRouter[9].ppp[18].queue 	"packets dropped by queue" 	0
scalar InetUnderlayNetwork.backboneRouter[9].ppp[19].queue 	"packets received by queue" 	0
scalar InetUnderlayNetwork.backboneRouter[9].ppp[19].queue 	"packets dropped by queue" 	0
scalar InetUnderlayNetwork.backboneRouter[9].ppp[20].queue 	"packets received by queue" 	3500
scalar InetUnderlayNetwork.backboneRouter[9].ppp[20].queue 	"packets dropped by queue" 	0
scalar InetUnderlayNetwork.backboneRouter[9].ppp[21].queue 	"packets received by queue" 	0
scalar InetUnderlayNetwork.backboneRouter[9].ppp[21].queue 	"packets dropped by queue" 	0
[...]
scalar InetUnderlayNetwork.overlayTerminal[11].ppp[0].queue 	"packets dropped by queue" 	0
scalar InetUnderlayNetwork.overlayTerminal[12].networkLayer.arp 	"ARP requests sent" 	0
scalar InetUnderlayNetwork.overlayTerminal[12].networkLayer.arp 	"ARP replies sent" 	0
scalar InetUnderlayNetwork.overlayTerminal[12].networkLayer.arp 	"ARP resolutions" 	0
scalar InetUnderlayNetwork.overlayTerminal[12].networkLayer.arp 	"failed ARP resolutions" 	0
scalar InetUnderlayNetwork.overlayTerminal[12].ppp[0].queue 	"packets received by queue" 	21731
scalar InetUnderlayNetwork.overlayTerminal[12].ppp[0].queue 	"packets dropped by queue" 	3519
scalar InetUnderlayNetwork.overlayTerminal[13].networkLayer.arp 	"ARP requests sent" 	0
scalar InetUnderlayNetwork.overlayTerminal[13].networkLayer.arp 	"ARP replies sent" 	0
scalar InetUnderlayNetwork.overlayTerminal[13].networkLayer.arp 	"ARP resolutions" 	0
scalar InetUnderlayNetwork.overlayTerminal[13].networkLayer.arp 	"failed ARP resolutions" 	0
scalar InetUnderlayNetwork.overlayTerminal[13].ppp[0].queue 	"packets received by queue" 	4966
scalar InetUnderlayNetwork.overlayTerminal[13].ppp[0].queue 	"packets dropped by queue" 	0
scalar InetUnderlayNetwork.overlayTerminal[14].networkLayer.arp 	"ARP requests sent" 	0
scalar InetUnderlayNetwork.overlayTerminal[14].networkLayer.arp 	"ARP replies sent" 	0
scalar InetUnderlayNetwork.overlayTerminal[14].networkLayer.arp 	"ARP resolutions" 	0
scalar InetUnderlayNetwork.overlayTerminal[14].networkLayer.arp 	"failed ARP resolutions" 	0
scalar InetUnderlayNetwork.overlayTerminal[14].ppp[0].queue 	"packets received by queue" 	353
scalar InetUnderlayNetwork.overlayTerminal[14].ppp[0].queue 	"packets dropped by queue" 	0
scalar InetUnderlayNetwork.overlayTerminal[15].networkLayer.arp 	"ARP requests sent" 	0
scalar InetUnderlayNetwork.overlayTerminal[15].networkLayer.arp 	"ARP replies sent" 	0
scalar InetUnderlayNetwork.overlayTerminal[15].networkLayer.arp 	"ARP resolutions" 	0
scalar InetUnderlayNetwork.overlayTerminal[15].networkLayer.arp 	"failed ARP resolutions" 	0
scalar InetUnderlayNetwork.overlayTerminal[15].ppp[0].queue 	"packets received by queue" 	4159
scalar InetUnderlayNetwork.overlayTerminal[15].ppp[0].queue 	"packets dropped by queue" 	0
scalar InetUnderlayNetwork.overlayTerminal[16].networkLayer.arp 	"ARP requests sent" 	0
scalar InetUnderlayNetwork.overlayTerminal[16].networkLayer.arp 	"ARP replies sent" 	0
scalar InetUnderlayNetwork.overlayTerminal[16].networkLayer.arp 	"ARP resolutions" 	0
scalar InetUnderlayNetwork.overlayTerminal[16].networkLayer.arp 	"failed ARP resolutions" 	0
scalar InetUnderlayNetwork.overlayTerminal[16].ppp[0].queue 	"packets received by queue" 	520
scalar InetUnderlayNetwork.overlayTerminal[16].ppp[0].queue 	"packets dropped by queue" 	0
scalar InetUnderlayNetwork.overlayTerminal[17].networkLayer.arp 	"ARP requests sent" 	0
scalar InetUnderlayNetwork.overlayTerminal[17].networkLayer.arp 	"ARP replies sent" 	0
scalar InetUnderlayNetwork.overlayTerminal[17].networkLayer.arp 	"ARP resolutions" 	0
scalar InetUnderlayNetwork.overlayTerminal[17].networkLayer.arp 	"failed ARP resolutions" 	0
scalar InetUnderlayNetwork.overlayTerminal[17].ppp[0].queue 	"packets received by queue" 	8793
scalar InetUnderlayNetwork.overlayTerminal[17].ppp[0].queue 	"packets dropped by queue" 	0
scalar InetUnderlayNetwork.overlayTerminal[18].networkLayer.arp 	"ARP requests sent" 	0
scalar InetUnderlayNetwork.overlayTerminal[18].networkLayer.arp 	"ARP replies sent" 	0
scalar InetUnderlayNetwork.overlayTerminal[18].networkLayer.arp 	"ARP resolutions" 	0
scalar InetUnderlayNetwork.overlayTerminal[18].networkLayer.arp 	"failed ARP resolutions" 	0
scalar InetUnderlayNetwork.overlayTerminal[18].ppp[0].queue 	"packets received by queue" 	4274
scalar InetUnderlayNetwork.overlayTerminal[18].ppp[0].queue 	"packets dropped by queue" 	0
scalar InetUnderlayNetwork.overlayTerminal[19].networkLayer.arp 	"ARP requests sent" 	0
scalar InetUnderlayNetwork.overlayTerminal[19].networkLayer.arp 	"ARP replies sent" 	0
scalar InetUnderlayNetwork.overlayTerminal[19].networkLayer.arp 	"ARP resolutions" 	0
scalar InetUnderlayNetwork.overlayTerminal[19].networkLayer.arp 	"failed ARP resolutions" 	0
scalar InetUnderlayNetwork.overlayTerminal[19].ppp[0].queue 	"packets received by queue" 	970
scalar InetUnderlayNetwork.overlayTerminal[19].ppp[0].queue 	"packets dropped by queue" 	0
scalar InetUnderlayNetwork.overlayTerminal[20].networkLayer.arp 	"ARP requests sent" 	0
scalar InetUnderlayNetwork.overlayTerminal[20].networkLayer.arp 	"ARP replies sent" 	0
scalar InetUnderlayNetwork.overlayTerminal[20].networkLayer.arp 	"ARP resolutions" 	0
scalar InetUnderlayNetwork.overlayTerminal[20].networkLayer.arp 	"failed ARP resolutions" 	0
scalar InetUnderlayNetwork.overlayTerminal[20].ppp[0].queue 	"packets received by queue" 	4422
scalar InetUnderlayNetwork.overlayTerminal[20].ppp[0].queue 	"packets dropped by queue" 	0
scalar InetUnderlayNetwork.overlayTerminal[21].networkLayer.arp 	"ARP requests sent" 	0
scalar InetUnderlayNetwork.overlayTerminal[21].networkLayer.arp 	"ARP replies sent" 	0
scalar InetUnderlayNetwork.overlayTerminal[21].networkLayer.arp 	"ARP resolutions" 	0
scalar InetUnderlayNetwork.overlayTerminal[21].networkLayer.arp 	"failed ARP resolutions" 	0
scalar InetUnderlayNetwork.overlayTerminal[21].ppp[0].queue 	"packets received by queue" 	22195
scalar InetUnderlayNetwork.overlayTerminal[21].ppp[0].queue 	"packets dropped by queue" 	0
scalar InetUnderlayNetwork.overlayTerminal[22].networkLayer.arp 	"ARP requests sent" 	0
scalar InetUnderlayNetwork.overlayTerminal[22].networkLayer.arp 	"ARP replies sent" 	0
scalar InetUnderlayNetwork.overlayTerminal[22].networkLayer.arp 	"ARP resolutions" 	0
scalar InetUnderlayNetwork.overlayTerminal[22].networkLayer.arp 	"failed ARP resolutions" 	0
scalar InetUnderlayNetwork.overlayTerminal[22].ppp[0].queue 	"packets received by queue" 	10045
scalar InetUnderlayNetwork.overlayTerminal[22].ppp[0].queue 	"packets dropped by queue" 	0
scalar InetUnderlayNetwork.overlayTerminal[23].networkLayer.arp 	"ARP requests sent" 	0
scalar InetUnderlayNetwork.overlayTerminal[23].networkLayer.arp 	"ARP replies sent" 	0
scalar InetUnderlayNetwork.overlayTerminal[23].networkLayer.arp 	"ARP resolutions" 	0
scalar InetUnderlayNetwork.overlayTerminal[23].networkLayer.arp 	"failed ARP resolutions" 	0
scalar InetUnderlayNetwork.overlayTerminal[23].ppp[0].queue 	"packets received by queue" 	7978
scalar InetUnderlayNetwork.overlayTerminal[23].ppp[0].queue 	"packets dropped by queue" 	0
scalar InetUnderlayNetwork.overlayTerminal[24].networkLayer.arp 	"ARP requests sent" 	0
scalar InetUnderlayNetwork.overlayTerminal[24].networkLayer.arp 	"ARP replies sent" 	0
scalar InetUnderlayNetwork.overlayTerminal[24].networkLayer.arp 	"ARP resolutions" 	0
scalar InetUnderlayNetwork.overlayTerminal[24].networkLayer.arp 	"failed ARP resolutions" 	0
scalar InetUnderlayNetwork.overlayTerminal[24].ppp[0].queue 	"packets received by queue" 	908
scalar InetUnderlayNetwork.overlayTerminal[24].ppp[0].queue 	"packets dropped by queue" 	0
scalar InetUnderlayNetwork.overlayTerminal[25].networkLayer.arp 	"ARP requests sent" 	0
scalar InetUnderlayNetwork.overlayTerminal[25].networkLayer.arp 	"ARP replies sent" 	0
scalar InetUnderlayNetwork.overlayTerminal[25].networkLayer.arp 	"ARP resolutions" 	0
scalar InetUnderlayNetwork.overlayTerminal[25].networkLayer.arp 	"failed ARP resolutions" 	0
scalar InetUnderlayNetwork.overlayTerminal[25].ppp[0].queue 	"packets received by queue" 	585
scalar InetUnderlayNetwork.overlayTerminal[25].ppp[0].queue 	"packets dropped by queue" 	0
scalar InetUnderlayNetwork.overlayTerminal[26].networkLayer.arp 	"ARP requests sent" 	0
scalar InetUnderlayNetwork.overlayTerminal[26].networkLayer.arp 	"ARP replies sent" 	0
scalar InetUnderlayNetwork.overlayTerminal[26].networkLayer.arp 	"ARP resolutions" 	0
scalar InetUnderlayNetwork.overlayTerminal[26].networkLayer.arp 	"failed ARP resolutions" 	0
scalar InetUnderlayNetwork.overlayTerminal[26].ppp[0].queue 	"packets received by queue" 	668
scalar InetUnderlayNetwork.overlayTerminal[26].ppp[0].queue 	"packets dropped by queue" 	0
scalar InetUnderlayNetwork.overlayTerminal[27].networkLayer.arp 	"ARP requests sent" 	0
scalar InetUnderlayNetwork.overlayTerminal[27].networkLayer.arp 	"ARP replies sent" 	0
scalar InetUnderlayNetwork.overlayTerminal[27].networkLayer.arp 	"ARP resolutions" 	0
scalar InetUnderlayNetwork.overlayTerminal[27].networkLayer.arp 	"failed ARP resolutions" 	0
scalar InetUnderlayNetwork.overlayTerminal[27].ppp[0].queue 	"packets received by queue" 	519
scalar InetUnderlayNetwork.overlayTerminal[27].ppp[0].queue 	"packets dropped by queue" 	0
scalar InetUnderlayNetwork.globalObserver.globalStatistics 	"GlobalStatistics: Simulation Time" 	56.138611952
scalar InetUnderlayNetwork.globalObserver.globalStatistics 	"BaseApp (bootstrapList): Received Bytes/s from Overlay.mean" 	0
scalar InetUnderlayNetwork.globalObserver.globalStatistics 	"BaseApp (bootstrapList): Received Bytes/s from UDP.mean" 	0
scalar InetUnderlayNetwork.globalObserver.globalStatistics 	"BaseApp (bootstrapList): Received Messages/s from Overlay.mean" 	0
scalar InetUnderlayNetwork.globalObserver.globalStatistics 	"BaseApp (bootstrapList): Received Messages/s from UDP.mean" 	0
scalar InetUnderlayNetwork.globalObserver.globalStatistics 	"BaseApp (bootstrapList): Sent Bytes/s to Overlay.mean" 	0
scalar InetUnderlayNetwork.globalObserver.globalStatistics 	"BaseApp (bootstrapList): Sent Bytes/s to UDP.mean" 	0
scalar InetUnderlayNetwork.globalObserver.globalStatistics 	"BaseApp (bootstrapList): Sent Messages/s to Overlay.mean" 	0
scalar InetUnderlayNetwork.globalObserver.globalStatistics 	"BaseApp (bootstrapList): Sent Messages/s to UDP.mean" 	0
scalar InetUnderlayNetwork.globalObserver.globalStatistics 	"BaseApp (neighborCache): Received Bytes/s from Overlay.mean" 	0
scalar InetUnderlayNetwork.globalObserver.globalStatistics 	"BaseApp (neighborCache): Received Bytes/s from UDP.mean" 	0
scalar InetUnderlayNetwork.globalObserver.globalStatistics 	"BaseApp (neighborCache): Received Messages/s from Overlay.mean" 	0
scalar InetUnderlayNetwork.globalObserver.globalStatistics 	"BaseApp (neighborCache): Received Messages/s from UDP.mean" 	0
scalar InetUnderlayNetwork.globalObserver.globalStatistics 	"BaseApp (neighborCache): Sent Bytes/s to Overlay.mean" 	0
scalar InetUnderlayNetwork.globalObserver.globalStatistics 	"BaseApp (neighborCache): Sent Bytes/s to UDP.mean" 	0
scalar InetUnderlayNetwork.globalObserver.globalStatistics 	"BaseApp (neighborCache): Sent Messages/s to Overlay.mean" 	0
scalar InetUnderlayNetwork.globalObserver.globalStatistics 	"BaseApp (neighborCache): Sent Messages/s to UDP.mean" 	0
scalar InetUnderlayNetwork.globalObserver.globalStatistics 	"BaseApp (nicetestapp): Received Bytes/s from Overlay.mean" 	0
scalar InetUnderlayNetwork.globalObserver.globalStatistics 	"BaseApp (nicetestapp): Received Bytes/s from UDP.mean" 	0
scalar InetUnderlayNetwork.globalObserver.globalStatistics 	"BaseApp (nicetestapp): Received Messages/s from Overlay.mean" 	0
scalar InetUnderlayNetwork.globalObserver.globalStatistics 	"BaseApp (nicetestapp): Received Messages/s from UDP.mean" 	0
scalar InetUnderlayNetwork.globalObserver.globalStatistics 	"BaseApp (nicetestapp): Sent Bytes/s to Overlay.mean" 	0
scalar InetUnderlayNetwork.globalObserver.globalStatistics 	"BaseApp (nicetestapp): Sent Bytes/s to UDP.mean" 	0
scalar InetUnderlayNetwork.globalObserver.globalStatistics 	"BaseApp (nicetestapp): Sent Messages/s to Overlay.mean" 	0
scalar InetUnderlayNetwork.globalObserver.globalStatistics 	"BaseApp (nicetestapp): Sent Messages/s to UDP.mean" 	0
scalar InetUnderlayNetwork.globalObserver.globalStatistics 	"BaseApp (tier2): Received Bytes/s from Overlay.mean" 	0
scalar InetUnderlayNetwork.globalObserver.globalStatistics 	"BaseApp (tier2): Received Bytes/s from UDP.mean" 	0
scalar InetUnderlayNetwork.globalObserver.globalStatistics 	"BaseApp (tier2): Received Messages/s from Overlay.mean" 	0
scalar InetUnderlayNetwork.globalObserver.globalStatistics 	"BaseApp (tier2): Received Messages/s from UDP.mean" 	0
scalar InetUnderlayNetwork.globalObserver.globalStatistics 	"BaseApp (tier2): Sent Bytes/s to Overlay.mean" 	0
scalar InetUnderlayNetwork.globalObserver.globalStatistics 	"BaseApp (tier2): Sent Bytes/s to UDP.mean" 	0
scalar InetUnderlayNetwork.globalObserver.globalStatistics 	"BaseApp (tier2): Sent Messages/s to Overlay.mean" 	0
scalar InetUnderlayNetwork.globalObserver.globalStatistics 	"BaseApp (tier2): Sent Messages/s to UDP.mean" 	0
scalar InetUnderlayNetwork.globalObserver.globalStatistics 	"BaseApp (tier3): Received Bytes/s from Overlay.mean" 	0
scalar InetUnderlayNetwork.globalObserver.globalStatistics 	"BaseApp (tier3): Received Bytes/s from UDP.mean" 	0
scalar InetUnderlayNetwork.globalObserver.globalStatistics 	"BaseApp (tier3): Received Messages/s from Overlay.mean" 	0
scalar InetUnderlayNetwork.globalObserver.globalStatistics 	"BaseApp (tier3): Received Messages/s from UDP.mean" 	0
scalar InetUnderlayNetwork.globalObserver.globalStatistics 	"BaseApp (tier3): Sent Bytes/s to Overlay.mean" 	0
scalar InetUnderlayNetwork.globalObserver.globalStatistics 	"BaseApp (tier3): Sent Bytes/s to UDP.mean" 	0
scalar InetUnderlayNetwork.globalObserver.globalStatistics 	"BaseApp (tier3): Sent Messages/s to Overlay.mean" 	0
scalar InetUnderlayNetwork.globalObserver.globalStatistics 	"BaseApp (tier3): Sent Messages/s to UDP.mean" 	0
scalar InetUnderlayNetwork.globalObserver.globalStatistics 	"BaseOverlay: Dropped Bytes/s.mean" 	0
scalar InetUnderlayNetwork.globalObserver.globalStatistics 	"BaseOverlay: Dropped Messages/s.mean" 	0
scalar InetUnderlayNetwork.globalObserver.globalStatistics 	"BaseOverlay: Forwarded App Data Bytes/s.mean" 	0
scalar InetUnderlayNetwork.globalObserver.globalStatistics 	"BaseOverlay: Forwarded App Data Messages/s.mean" 	0
scalar InetUnderlayNetwork.globalObserver.globalStatistics 	"BaseOverlay: Forwarded App Lookup Bytes/s.mean" 	0
scalar InetUnderlayNetwork.globalObserver.globalStatistics 	"BaseOverlay: Forwarded App Lookup Messages/s.mean" 	0
scalar InetUnderlayNetwork.globalObserver.globalStatistics 	"BaseOverlay: Forwarded Maintenance Bytes/s.mean" 	0
scalar InetUnderlayNetwork.globalObserver.globalStatistics 	"BaseOverlay: Forwarded Maintenance Messages/s.mean" 	0
scalar InetUnderlayNetwork.globalObserver.globalStatistics 	"BaseOverlay: Forwarded Total Bytes/s.mean" 	0
scalar InetUnderlayNetwork.globalObserver.globalStatistics 	"BaseOverlay: Forwarded Total Messages/s.mean" 	0
scalar InetUnderlayNetwork.globalObserver.globalStatistics 	"BaseOverlay: Join Retries.mean" 	1
scalar InetUnderlayNetwork.globalObserver.globalStatistics 	"BaseOverlay: Measured Session Time.mean" 	43.697538276571
scalar InetUnderlayNetwork.globalObserver.globalStatistics 	"BaseOverlay: Received App Data Bytes/s.mean" 	0
scalar InetUnderlayNetwork.globalObserver.globalStatistics 	"BaseOverlay: Received App Data Messages/s.mean" 	0
scalar InetUnderlayNetwork.globalObserver.globalStatistics 	"BaseOverlay: Received App Lookup Bytes/s.mean" 	0
scalar InetUnderlayNetwork.globalObserver.globalStatistics 	"BaseOverlay: Received App Lookup Messages/s.mean" 	0
scalar InetUnderlayNetwork.globalObserver.globalStatistics 	"BaseOverlay: Received Maintenance Bytes/s.mean" 	15040.146413408
scalar InetUnderlayNetwork.globalObserver.globalStatistics 	"BaseOverlay: Received Maintenance Messages/s.mean" 	167.60204679725
scalar InetUnderlayNetwork.globalObserver.globalStatistics 	"BaseOverlay: Received Total Bytes/s.mean" 	15040.146413408
scalar InetUnderlayNetwork.globalObserver.globalStatistics 	"BaseOverlay: Received Total Messages/s.mean" 	167.60204679725
scalar InetUnderlayNetwork.globalObserver.globalStatistics 	"BaseOverlay: Sent App Data Bytes/s.mean" 	0
scalar InetUnderlayNetwork.globalObserver.globalStatistics 	"BaseOverlay: Sent App Data Messages/s.mean" 	0
scalar InetUnderlayNetwork.globalObserver.globalStatistics 	"BaseOverlay: Sent App Lookup Bytes/s.mean" 	0
scalar InetUnderlayNetwork.globalObserver.globalStatistics 	"BaseOverlay: Sent App Lookup Messages/s.mean" 	0
scalar InetUnderlayNetwork.globalObserver.globalStatistics 	"BaseOverlay: Sent FailedNode Bytes/s.mean" 	0
scalar InetUnderlayNetwork.globalObserver.globalStatistics 	"BaseOverlay: Sent FailedNode Messages/s.mean" 	0
scalar InetUnderlayNetwork.globalObserver.globalStatistics 	"BaseOverlay: Sent FailedNodeResponse Bytes/s.mean" 	0
scalar InetUnderlayNetwork.globalObserver.globalStatistics 	"BaseOverlay: Sent FailedNodeResponse Messages/s.mean" 	0
scalar InetUnderlayNetwork.globalObserver.globalStatistics 	"BaseOverlay: Sent FindNode Bytes/s.mean" 	0
scalar InetUnderlayNetwork.globalObserver.globalStatistics 	"BaseOverlay: Sent FindNode Messages/s.mean" 	0
scalar InetUnderlayNetwork.globalObserver.globalStatistics 	"BaseOverlay: Sent FindNodeResponse Bytes/s.mean" 	0
scalar InetUnderlayNetwork.globalObserver.globalStatistics 	"BaseOverlay: Sent FindNodeResponse Messages/s.mean" 	0
scalar InetUnderlayNetwork.globalObserver.globalStatistics 	"BaseOverlay: Sent Maintenance Bytes/s.mean" 	15734.761026836
scalar InetUnderlayNetwork.globalObserver.globalStatistics 	"BaseOverlay: Sent Maintenance Messages/s.mean" 	175.35443939773
scalar InetUnderlayNetwork.globalObserver.globalStatistics 	"BaseOverlay: Sent Ping Bytes/s.mean" 	0
scalar InetUnderlayNetwork.globalObserver.globalStatistics 	"BaseOverlay: Sent Ping Messages/s.mean" 	0
scalar InetUnderlayNetwork.globalObserver.globalStatistics 	"BaseOverlay: Sent Ping Response Bytes/s.mean" 	0
scalar InetUnderlayNetwork.globalObserver.globalStatistics 	"BaseOverlay: Sent Ping Response Messages/s.mean" 	0
scalar InetUnderlayNetwork.globalObserver.globalStatistics 	"BaseOverlay: Sent Total Bytes/s.mean" 	15734.761026836
scalar InetUnderlayNetwork.globalObserver.globalStatistics 	"BaseOverlay: Sent Total Messages/s.mean" 	175.35443939773
scalar InetUnderlayNetwork.globalObserver.globalStatistics 	"Nice: Forwarded Multicast Bytes/s.mean" 	14799.055042
scalar InetUnderlayNetwork.globalObserver.globalStatistics 	"Nice: Forwarded Multicast Messages/s.mean" 	1641025.6949229
scalar InetUnderlayNetwork.globalObserver.globalStatistics 	"Nice: Inconsistencies/s.mean" 	0.0023642551389089
scalar InetUnderlayNetwork.globalObserver.globalStatistics 	"Nice: Own Messages Received/s.mean" 	1.8488475186267
scalar InetUnderlayNetwork.globalObserver.globalStatistics 	"Nice: Peer Timeouts/s.mean" 	0.17968339055707
scalar InetUnderlayNetwork.globalObserver.globalStatistics 	"Nice: Query Timeouts/s.mean" 	0.0011821275694544
scalar InetUnderlayNetwork.globalObserver.globalStatistics 	"Nice: Received JOIN Messages/s.mean" 	0.030735316805815
scalar InetUnderlayNetwork.globalObserver.globalStatistics 	"Nice: Received Multicast Bytes/s (subscribed groups only).mean" 	15001.411639339
scalar InetUnderlayNetwork.globalObserver.globalStatistics 	"Nice: Received Multicast Messages/s (subscribed groups only).mean" 	166.68235154821
scalar InetUnderlayNetwork.globalObserver.globalStatistics 	"Nice: SC Minimum Compare/s.mean" 	0.00095929517498685
scalar InetUnderlayNetwork.globalObserver.globalStatistics 	"Nice: Send Heartbeat Bytes/s.mean" 	32.893881747639
scalar InetUnderlayNetwork.globalObserver.globalStatistics 	"Nice: Send Heartbeat Messages/s.mean" 	0.48585443104577
scalar InetUnderlayNetwork.globalObserver.globalStatistics 	"Nice: Structure Partitions/s.mean" 	0.0011821275694544
scalar InetUnderlayNetwork.globalObserver.globalStatistics 	"Nice: Temporary Peer Timeouts/s.mean" 	0
scalar InetUnderlayNetwork.globalObserver.globalStatistics 	"Vector: GlobalNodeList: Number of bootstrapped malicious nodes.mean" 	0
scalar InetUnderlayNetwork.globalObserver.globalStatistics 	"Vector: GlobalNodeList: Number of nodes.mean" 	28
