version 2
run General-0-20100719-16:19:32-8364
attr configname General
attr datetime 20100719-16:19:32
attr experiment General
attr inifile world.ini
attr iterationvars ""
attr iterationvars2 $repetition=0
attr measurement ""
attr network oversim.underlay.inetunderlay.GTITM_TS_IPv4Network
attr processid 8364
attr repetition 0
attr replication #0
attr resultdir results
attr runnumber 0
attr seedset 1

scalar GTITM_TS_IPv4Network.underlayConfigurator 	"Terminals added" 	128
scalar GTITM_TS_IPv4Network.underlayConfigurator 	"Terminals removed" 	0
scalar GTITM_TS_IPv4Network.globalObserver.globalFunctions[0].function.observer 	"MessageObserver: Total Sent Messages" 	0
scalar GTITM_TS_IPv4Network.globalObserver.globalFunctions[0].function.observer 	"MessageObserver: Total Received Messages" 	0
scalar GTITM_TS_IPv4Network.globalObserver.globalFunctions[0].function.observer 	"MessageObserver: Total Delivered Percentage" 	nan
scalar GTITM_TS_IPv4Network.backboneRouter[0].networkLayer.arp 	"ARP requests sent" 	0
scalar GTITM_TS_IPv4Network.backboneRouter[0].networkLayer.arp 	"ARP replies sent" 	0
scalar GTITM_TS_IPv4Network.backboneRouter[0].networkLayer.arp 	"ARP resolutions" 	0
scalar GTITM_TS_IPv4Network.backboneRouter[0].networkLayer.arp 	"failed ARP resolutions" 	0
scalar GTITM_TS_IPv4Network.backboneRouter[0].ppp[0].queue 	"packets received by queue" 	7291
scalar GTITM_TS_IPv4Network.backboneRouter[0].ppp[0].queue 	"packets dropped by queue" 	0
scalar GTITM_TS_IPv4Network.backboneRouter[0].ppp[1].queue 	"packets received by queue" 	12798
scalar GTITM_TS_IPv4Network.backboneRouter[0].ppp[1].queue 	"packets dropped by queue" 	0
scalar GTITM_TS_IPv4Network.backboneRouter[0].ppp[2].queue 	"packets received by queue" 	931
scalar GTITM_TS_IPv4Network.backboneRouter[0].ppp[2].queue 	"packets dropped by queue" 	0
scalar GTITM_TS_IPv4Network.backboneRouter[0].ppp[3].queue 	"packets received by queue" 	0
scalar GTITM_TS_IPv4Network.backboneRouter[0].ppp[3].queue 	"packets dropped by queue" 	0
scalar GTITM_TS_IPv4Network.backboneRouter[0].ppp[4].queue 	"packets received by queue" 	8166
scalar GTITM_TS_IPv4Network.backboneRouter[0].ppp[4].queue 	"packets dropped by queue" 	0
scalar GTITM_TS_IPv4Network.backboneRouter[0].ppp[5].queue 	"packets received by queue" 	1611
scalar GTITM_TS_IPv4Network.backboneRouter[0].ppp[5].queue 	"packets dropped by queue" 	0
scalar GTITM_TS_IPv4Network.backboneRouter[0].ppp[6].queue 	"packets received by queue" 	0
scalar GTITM_TS_IPv4Network.backboneRouter[0].ppp[6].queue 	"packets dropped by queue" 	0
scalar GTITM_TS_IPv4Network.backboneRouter[1].networkLayer.arp 	"ARP requests sent" 	0
scalar GTITM_TS_IPv4Network.backboneRouter[1].networkLayer.arp 	"ARP replies sent" 	0
scalar GTITM_TS_IPv4Network.backboneRouter[1].networkLayer.arp 	"ARP resolutions" 	0
scalar GTITM_TS_IPv4Network.backboneRouter[1].networkLayer.arp 	"failed ARP resolutions" 	0
scalar GTITM_TS_IPv4Network.backboneRouter[1].ppp[0].queue 	"packets received by queue" 	15406
scalar GTITM_TS_IPv4Network.backboneRouter[1].ppp[0].queue 	"packets dropped by queue" 	0
scalar GTITM_TS_IPv4Network.backboneRouter[1].ppp[1].queue 	"packets received by queue" 	10552
scalar GTITM_TS_IPv4Network.backboneRouter[1].ppp[1].queue 	"packets dropped by queue" 	0
scalar GTITM_TS_IPv4Network.backboneRouter[1].ppp[2].queue 	"packets received by queue" 	3899
scalar GTITM_TS_IPv4Network.backboneRouter[1].ppp[2].queue 	"packets dropped by queue" 	0
scalar GTITM_TS_IPv4Network.backboneRouter[1].ppp[3].queue 	"packets received by queue" 	2288
scalar GTITM_TS_IPv4Network.backboneRouter[1].ppp[3].queue 	"packets dropped by queue" 	0
scalar GTITM_TS_IPv4Network.backboneRouter[1].ppp[4].queue 	"packets received by queue" 	2850
scalar GTITM_TS_IPv4Network.backboneRouter[1].ppp[4].queue 	"packets dropped by queue" 	0
scalar GTITM_TS_IPv4Network.backboneRouter[1].ppp[5].queue 	"packets received by queue" 	3059
scalar GTITM_TS_IPv4Network.backboneRouter[1].ppp[5].queue 	"packets dropped by queue" 	0
scalar GTITM_TS_IPv4Network.backboneRouter[1].ppp[6].queue 	"packets received by queue" 	2503
scalar GTITM_TS_IPv4Network.backboneRouter[1].ppp[6].queue 	"packets dropped by queue" 	0
scalar GTITM_TS_IPv4Network.backboneRouter[1].ppp[7].queue 	"packets received by queue" 	2134
scalar GTITM_TS_IPv4Network.backboneRouter[1].ppp[7].queue 	"packets dropped by queue" 	0
scalar GTITM_TS_IPv4Network.backboneRouter[1].ppp[8].queue 	"packets received by queue" 	5750
scalar GTITM_TS_IPv4Network.backboneRouter[1].ppp[8].queue 	"packets dropped by queue" 	0
scalar GTITM_TS_IPv4Network.backboneRouter[1].ppp[9].queue 	"packets received by queue" 	1716
scalar GTITM_TS_IPv4Network.backboneRouter[1].ppp[9].queue 	"packets dropped by queue" 	0
scalar GTITM_TS_IPv4Network.backboneRouter[1].ppp[10].queue 	"packets received by queue" 	6763
scalar GTITM_TS_IPv4Network.backboneRouter[1].ppp[10].queue 	"packets dropped by queue" 	0
scalar GTITM_TS_IPv4Network.backboneRouter[1].ppp[11].queue 	"packets received by queue" 	3926
scalar GTITM_TS_IPv4Network.backboneRouter[1].ppp[11].queue 	"packets dropped by queue" 	0
scalar GTITM_TS_IPv4Network.backboneRouter[2].networkLayer.arp 	"ARP requests sent" 	0
scalar GTITM_TS_IPv4Network.backboneRouter[2].networkLayer.arp 	"ARP replies sent" 	0
scalar GTITM_TS_IPv4Network.backboneRouter[2].networkLayer.arp 	"ARP resolutions" 	0
scalar GTITM_TS_IPv4Network.backboneRouter[2].networkLayer.arp 	"failed ARP resolutions" 	0
scalar GTITM_TS_IPv4Network.backboneRouter[2].ppp[0].queue 	"packets received by queue" 	308
scalar GTITM_TS_IPv4Network.backboneRouter[2].ppp[0].queue 	"packets dropped by queue" 	0
scalar GTITM_TS_IPv4Network.backboneRouter[2].ppp[1].queue 	"packets received by queue" 	160
scalar GTITM_TS_IPv4Network.backboneRouter[2].ppp[1].queue 	"packets dropped by queue" 	0
scalar GTITM_TS_IPv4Network.backboneRouter[2].ppp[2].queue 	"packets received by queue" 	61
scalar GTITM_TS_IPv4Network.backboneRouter[2].ppp[2].queue 	"packets dropped by queue" 	0
scalar GTITM_TS_IPv4Network.backboneRouter[2].ppp[3].queue 	"packets received by queue" 	169
scalar GTITM_TS_IPv4Network.backboneRouter[2].ppp[3].queue 	"packets dropped by queue" 	0
scalar GTITM_TS_IPv4Network.backboneRouter[2].ppp[4].queue 	"packets received by queue" 	188
scalar GTITM_TS_IPv4Network.backboneRouter[2].ppp[4].queue 	"packets dropped by queue" 	0
scalar GTITM_TS_IPv4Network.backboneRouter[2].ppp[5].queue 	"packets received by queue" 	1791
scalar GTITM_TS_IPv4Network.backboneRouter[2].ppp[5].queue 	"packets dropped by queue" 	0
scalar GTITM_TS_IPv4Network.backboneRouter[3].networkLayer.arp 	"ARP requests sent" 	0
scalar GTITM_TS_IPv4Network.backboneRouter[3].networkLayer.arp 	"ARP replies sent" 	0
scalar GTITM_TS_IPv4Network.backboneRouter[3].networkLayer.arp 	"ARP resolutions" 	0
scalar GTITM_TS_IPv4Network.backboneRouter[3].networkLayer.arp 	"failed ARP resolutions" 	0
scalar GTITM_TS_IPv4Network.backboneRouter[3].ppp[0].queue 	"packets received by queue" 	3945
scalar GTITM_TS_IPv4Network.backboneRouter[3].ppp[0].queue 	"packets dropped by queue" 	0
scalar GTITM_TS_IPv4Network.backboneRouter[3].ppp[1].queue 	"packets received by queue" 	512
scalar GTITM_TS_IPv4Network.backboneRouter[3].ppp[1].queue 	"packets dropped by queue" 	0
scalar GTITM_TS_IPv4Network.backboneRouter[3].ppp[2].queue 	"packets received by queue" 	2532
scalar GTITM_TS_IPv4Network.backboneRouter[3].ppp[2].queue 	"packets dropped by queue" 	0
scalar GTITM_TS_IPv4Network.backboneRouter[3].ppp[3].queue 	"packets received by queue" 	110
scalar GTITM_TS_IPv4Network.backboneRouter[3].ppp[3].queue 	"packets dropped by queue" 	0
scalar GTITM_TS_IPv4Network.backboneRouter[3].ppp[4].queue 	"packets received by queue" 	8292
scalar GTITM_TS_IPv4Network.backboneRouter[3].ppp[4].queue 	"packets dropped by queue" 	0
scalar GTITM_TS_IPv4Network.backboneRouter[3].ppp[5].queue 	"packets received by queue" 	1732
scalar GTITM_TS_IPv4Network.backboneRouter[3].ppp[5].queue 	"packets dropped by queue" 	0
scalar GTITM_TS_IPv4Network.backboneRouter[3].ppp[6].queue 	"packets received by queue" 	3227
scalar GTITM_TS_IPv4Network.backboneRouter[3].ppp[6].queue 	"packets dropped by queue" 	0
scalar GTITM_TS_IPv4Network.backboneRouter[4].networkLayer.arp 	"ARP requests sent" 	0
scalar GTITM_TS_IPv4Network.backboneRouter[4].networkLayer.arp 	"ARP replies sent" 	0
scalar GTITM_TS_IPv4Network.backboneRouter[4].networkLayer.arp 	"ARP resolutions" 	0
scalar GTITM_TS_IPv4Network.backboneRouter[4].networkLayer.arp 	"failed ARP resolutions" 	0
scalar GTITM_TS_IPv4Network.backboneRouter[4].ppp[0].queue 	"packets received by queue" 	180
scalar GTITM_TS_IPv4Network.backboneRouter[4].ppp[0].queue 	"packets dropped by queue" 	0
scalar GTITM_TS_IPv4Network.backboneRouter[4].ppp[1].queue 	"packets received by queue" 	2068
scalar GTITM_TS_IPv4Network.backboneRouter[4].ppp[1].queue 	"packets dropped by queue" 	0
scalar GTITM_TS_IPv4Network.backboneRouter[4].ppp[2].queue 	"packets received by queue" 	1836
scalar GTITM_TS_IPv4Network.backboneRouter[4].ppp[2].queue 	"packets dropped by queue" 	0
scalar GTITM_TS_IPv4Network.backboneRouter[4].ppp[3].queue 	"packets received by queue" 	382
scalar GTITM_TS_IPv4Network.backboneRouter[4].ppp[3].queue 	"packets dropped by queue" 	0
scalar GTITM_TS_IPv4Network.backboneRouter[4].ppp[4].queue 	"packets received by queue" 	218
scalar GTITM_TS_IPv4Network.backboneRouter[4].ppp[4].queue 	"packets dropped by queue" 	0
scalar GTITM_TS_IPv4Network.backboneRouter[4].ppp[5].queue 	"packets received by queue" 	3208
scalar GTITM_TS_IPv4Network.backboneRouter[4].ppp[5].queue 	"packets dropped by queue" 	0
scalar GTITM_TS_IPv4Network.backboneRouter[4].ppp[6].queue 	"packets received by queue" 	6836
scalar GTITM_TS_IPv4Network.backboneRouter[4].ppp[6].queue 	"packets dropped by queue" 	0
scalar GTITM_TS_IPv4Network.backboneRouter[5].networkLayer.arp 	"ARP requests sent" 	0
scalar GTITM_TS_IPv4Network.backboneRouter[5].networkLayer.arp 	"ARP replies sent" 	0
scalar GTITM_TS_IPv4Network.backboneRouter[5].networkLayer.arp 	"ARP resolutions" 	0
scalar GTITM_TS_IPv4Network.backboneRouter[5].networkLayer.arp 	"failed ARP resolutions" 	0
scalar GTITM_TS_IPv4Network.backboneRouter[5].ppp[0].queue 	"packets received by queue" 	3903
scalar GTITM_TS_IPv4Network.backboneRouter[5].ppp[0].queue 	"packets dropped by queue" 	0
scalar GTITM_TS_IPv4Network.backboneRouter[5].ppp[1].queue 	"packets received by queue" 	5925
scalar GTITM_TS_IPv4Network.backboneRouter[5].ppp[1].queue 	"packets dropped by queue" 	0
scalar GTITM_TS_IPv4Network.backboneRouter[5].ppp[2].queue 	"packets received by queue" 	61
scalar GTITM_TS_IPv4Network.backboneRouter[5].ppp[2].queue 	"packets dropped by queue" 	0
scalar GTITM_TS_IPv4Network.backboneRouter[5].ppp[3].queue 	"packets received by queue" 	112
scalar GTITM_TS_IPv4Network.backboneRouter[5].ppp[3].queue 	"packets dropped by queue" 	0
scalar GTITM_TS_IPv4Network.backboneRouter[5].ppp[4].queue 	"packets received by queue" 	661
scalar GTITM_TS_IPv4Network.backboneRouter[5].ppp[4].queue 	"packets dropped by queue" 	0
scalar GTITM_TS_IPv4Network.backboneRouter[5].ppp[5].queue 	"packets received by queue" 	277
scalar GTITM_TS_IPv4Network.backboneRouter[5].ppp[5].queue 	"packets dropped by queue" 	0
scalar GTITM_TS_IPv4Network.backboneRouter[5].ppp[6].queue 	"packets received by queue" 	0
scalar GTITM_TS_IPv4Network.backboneRouter[5].ppp[6].queue 	"packets dropped by queue" 	0
scalar GTITM_TS_IPv4Network.backboneRouter[5].ppp[7].queue 	"packets received by queue" 	3715
scalar GTITM_TS_IPv4Network.backboneRouter[5].ppp[7].queue 	"packets dropped by queue" 	0
scalar GTITM_TS_IPv4Network.backboneRouter[5].ppp[8].queue 	"packets received by queue" 	0
scalar GTITM_TS_IPv4Network.backboneRouter[5].ppp[8].queue 	"packets dropped by queue" 	0
scalar GTITM_TS_IPv4Network.backboneRouter[6].networkLayer.arp 	"ARP requests sent" 	0
scalar GTITM_TS_IPv4Network.backboneRouter[6].networkLayer.arp 	"ARP replies sent" 	0
scalar GTITM_TS_IPv4Network.backboneRouter[6].networkLayer.arp 	"ARP resolutions" 	0
scalar GTITM_TS_IPv4Network.backboneRouter[6].networkLayer.arp 	"failed ARP resolutions" 	0
scalar GTITM_TS_IPv4Network.backboneRouter[6].ppp[0].queue 	"packets received by queue" 	553
scalar GTITM_TS_IPv4Network.backboneRouter[6].ppp[0].queue 	"packets dropped by queue" 	0
scalar GTITM_TS_IPv4Network.backboneRouter[6].ppp[1].queue 	"packets received by queue" 	344
scalar GTITM_TS_IPv4Network.backboneRouter[6].ppp[1].queue 	"packets dropped by queue" 	0
scalar GTITM_TS_IPv4Network.backboneRouter[6].ppp[2].queue 	"packets received by queue" 	81
scalar GTITM_TS_IPv4Network.backboneRouter[6].ppp[2].queue 	"packets dropped by queue" 	0
scalar GTITM_TS_IPv4Network.backboneRouter[6].ppp[3].queue 	"packets received by queue" 	0
scalar GTITM_TS_IPv4Network.backboneRouter[6].ppp[3].queue 	"packets dropped by queue" 	0
scalar GTITM_TS_IPv4Network.backboneRouter[6].ppp[4].queue 	"packets received by queue" 	3277
scalar GTITM_TS_IPv4Network.backboneRouter[6].ppp[4].queue 	"packets dropped by queue" 	0
scalar GTITM_TS_IPv4Network.backboneRouter[6].ppp[5].queue 	"packets received by queue" 	0
scalar GTITM_TS_IPv4Network.backboneRouter[6].ppp[5].queue 	"packets dropped by queue" 	0
scalar GTITM_TS_IPv4Network.backboneRouter[6].ppp[6].queue 	"packets received by queue" 	0
scalar GTITM_TS_IPv4Network.backboneRouter[6].ppp[6].queue 	"packets dropped by queue" 	0
scalar GTITM_TS_IPv4Network.backboneRouter[7].networkLayer.arp 	"ARP requests sent" 	0
scalar GTITM_TS_IPv4Network.backboneRouter[7].networkLayer.arp 	"ARP replies sent" 	0
scalar GTITM_TS_IPv4Network.backboneRouter[7].networkLayer.arp 	"ARP resolutions" 	0
scalar GTITM_TS_IPv4Network.backboneRouter[7].networkLayer.arp 	"failed ARP resolutions" 	0
scalar GTITM_TS_IPv4Network.backboneRouter[7].ppp[0].queue 	"packets received by queue" 	2942
scalar GTITM_TS_IPv4Network.backboneRouter[7].ppp[0].queue 	"packets dropped by queue" 	0
scalar GTITM_TS_IPv4Network.backboneRouter[7].ppp[1].queue 	"packets received by queue" 	3225
scalar GTITM_TS_IPv4Network.backboneRouter[7].ppp[1].queue 	"packets dropped by queue" 	0
scalar GTITM_TS_IPv4Network.backboneRouter[7].ppp[2].queue 	"packets received by queue" 	538
scalar GTITM_TS_IPv4Network.backboneRouter[7].ppp[2].queue 	"packets dropped by queue" 	0
scalar GTITM_TS_IPv4Network.backboneRouter[7].ppp[3].queue 	"packets received by queue" 	509
scalar GTITM_TS_IPv4Network.backboneRouter[7].ppp[3].queue 	"packets dropped by queue" 	0
scalar GTITM_TS_IPv4Network.backboneRouter[7].ppp[4].queue 	"packets received by queue" 	209
scalar GTITM_TS_IPv4Network.backboneRouter[7].ppp[4].queue 	"packets dropped by queue" 	0
scalar GTITM_TS_IPv4Network.backboneRouter[7].ppp[5].queue 	"packets received by queue" 	378
scalar GTITM_TS_IPv4Network.backboneRouter[7].ppp[5].queue 	"packets dropped by queue" 	0
scalar GTITM_TS_IPv4Network.backboneRouter[7].ppp[6].queue 	"packets received by queue" 	7364
scalar GTITM_TS_IPv4Network.backboneRouter[7].ppp[6].queue 	"packets dropped by queue" 	0
scalar GTITM_TS_IPv4Network.backboneRouter[7].ppp[7].queue 	"packets received by queue" 	15096
scalar GTITM_TS_IPv4Network.backboneRouter[7].ppp[7].queue 	"packets dropped by queue" 	0
scalar GTITM_TS_IPv4Network.backboneRouter[7].ppp[8].queue 	"packets received by queue" 	3831
scalar GTITM_TS_IPv4Network.backboneRouter[7].ppp[8].queue 	"packets dropped by queue" 	0
scalar GTITM_TS_IPv4Network.backboneRouter[7].ppp[9].queue 	"packets received by queue" 	0
scalar GTITM_TS_IPv4Network.backboneRouter[7].ppp[9].queue 	"packets dropped by queue" 	0
scalar GTITM_TS_IPv4Network.backboneRouter[7].ppp[10].queue 	"packets received by queue" 	1056
scalar GTITM_TS_IPv4Network.backboneRouter[7].ppp[10].queue 	"packets dropped by queue" 	0
scalar GTITM_TS_IPv4Network.backboneRouter[7].ppp[11].queue 	"packets received by queue" 	0
scalar GTITM_TS_IPv4Network.backboneRouter[7].ppp[11].queue 	"packets dropped by queue" 	0
scalar GTITM_TS_IPv4Network.backboneRouter[8].networkLayer.arp 	"ARP requests sent" 	0
scalar GTITM_TS_IPv4Network.backboneRouter[8].networkLayer.arp 	"ARP replies sent" 	0
scalar GTITM_TS_IPv4Network.backboneRouter[8].networkLayer.arp 	"ARP resolutions" 	0
scalar GTITM_TS_IPv4Network.backboneRouter[8].networkLayer.arp 	"failed ARP resolutions" 	0
scalar GTITM_TS_IPv4Network.backboneRouter[8].ppp[0].queue 	"packets received by queue" 	1896
scalar GTITM_TS_IPv4Network.backboneRouter[8].ppp[0].queue 	"packets dropped by queue" 	0
scalar GTITM_TS_IPv4Network.backboneRouter[8].ppp[1].queue 	"packets received by queue" 	6408
scalar GTITM_TS_IPv4Network.backboneRouter[8].ppp[1].queue 	"packets dropped by queue" 	0
scalar GTITM_TS_IPv4Network.backboneRouter[8].ppp[2].queue 	"packets received by queue" 	168
scalar GTITM_TS_IPv4Network.backboneRouter[8].ppp[2].queue 	"packets dropped by queue" 	0
scalar GTITM_TS_IPv4Network.backboneRouter[8].ppp[3].queue 	"packets received by queue" 	2535
scalar GTITM_TS_IPv4Network.backboneRouter[8].ppp[3].queue 	"packets dropped by queue" 	0
scalar GTITM_TS_IPv4Network.backboneRouter[8].ppp[4].queue 	"packets received by queue" 	6222
scalar GTITM_TS_IPv4Network.backboneRouter[8].ppp[4].queue 	"packets dropped by queue" 	0
scalar GTITM_TS_IPv4Network.backboneRouter[8].ppp[5].queue 	"packets received by queue" 	0
scalar GTITM_TS_IPv4Network.backboneRouter[8].ppp[5].queue 	"packets dropped by queue" 	0
scalar GTITM_TS_IPv4Network.backboneRouter[8].ppp[6].queue 	"packets received by queue" 	7104
scalar GTITM_TS_IPv4Network.backboneRouter[8].ppp[6].queue 	"packets dropped by queue" 	0
scalar GTITM_TS_IPv4Network.backboneRouter[8].ppp[7].queue 	"packets received by queue" 	7790
scalar GTITM_TS_IPv4Network.backboneRouter[8].ppp[7].queue 	"packets dropped by queue" 	0
scalar GTITM_TS_IPv4Network.backboneRouter[9].networkLayer.arp 	"ARP requests sent" 	0
scalar GTITM_TS_IPv4Network.backboneRouter[9].networkLayer.arp 	"ARP replies sent" 	0
scalar GTITM_TS_IPv4Network.backboneRouter[9].networkLayer.arp 	"ARP resolutions" 	0
scalar GTITM_TS_IPv4Network.backboneRouter[9].networkLayer.arp 	"failed ARP resolutions" 	0
scalar GTITM_TS_IPv4Network.backboneRouter[9].ppp[0].queue 	"packets received by queue" 	0
scalar GTITM_TS_IPv4Network.backboneRouter[9].ppp[0].queue 	"packets dropped by queue" 	0
scalar GTITM_TS_IPv4Network.backboneRouter[9].ppp[1].queue 	"packets received by queue" 	0
scalar GTITM_TS_IPv4Network.backboneRouter[9].ppp[1].queue 	"packets dropped by queue" 	0
scalar GTITM_TS_IPv4Network.backboneRouter[9].ppp[2].queue 	"packets received by queue" 	0
scalar GTITM_TS_IPv4Network.backboneRouter[9].ppp[2].queue 	"packets dropped by queue" 	0
scalar GTITM_TS_IPv4Network.backboneRouter[9].ppp[3].queue 	"packets received by queue" 	0
scalar GTITM_TS_IPv4Network.backboneRouter[9].ppp[3].queue 	"packets dropped by queue" 	0
scalar GTITM_TS_IPv4Network.backboneRouter[9].ppp[4].queue 	"packets received by queue" 	0
scalar GTITM_TS_IPv4Network.backboneRouter[9].ppp[4].queue 	"packets dropped by queue" 	0
scalar GTITM_TS_IPv4Network.backboneRouter[9].ppp[5].queue 	"packets received by queue" 	0
scalar GTITM_TS_IPv4Network.backboneRouter[9].ppp[5].queue 	"packets dropped by queue" 	0
scalar GTITM_TS_IPv4Network.backboneRouter[10].networkLayer.arp 	"ARP requests sent" 	0
scalar GTITM_TS_IPv4Network.backboneRouter[10].networkLayer.arp 	"ARP replies sent" 	0
scalar GTITM_TS_IPv4Network.backboneRouter[10].networkLayer.arp 	"ARP resolutions" 	0
scalar GTITM_TS_IPv4Network.backboneRouter[10].networkLayer.arp 	"failed ARP resolutions" 	0
scalar GTITM_TS_IPv4Network.backboneRouter[10].ppp[0].queue 	"packets received by queue" 	7447
scalar GTITM_TS_IPv4Network.backboneRouter[10].ppp[0].queue 	"packets dropped by queue" 	0
scalar GTITM_TS_IPv4Network.backboneRouter[10].ppp[1].queue 	"packets received by queue" 	1199
scalar GTITM_TS_IPv4Network.backboneRouter[10].ppp[1].queue 	"packets dropped by queue" 	0
scalar GTITM_TS_IPv4Network.backboneRouter[10].ppp[2].queue 	"packets received by queue" 	370
scalar GTITM_TS_IPv4Network.backboneRouter[10].ppp[2].queue 	"packets dropped by queue" 	0
scalar GTITM_TS_IPv4Network.backboneRouter[10].ppp[3].queue 	"packets received by queue" 	110
scalar GTITM_TS_IPv4Network.backboneRouter[10].ppp[3].queue 	"packets dropped by queue" 	0
scalar GTITM_TS_IPv4Network.backboneRouter[10].ppp[4].queue 	"packets received by queue" 	49
scalar GTITM_TS_IPv4Network.backboneRouter[10].ppp[4].queue 	"packets dropped by queue" 	0
scalar GTITM_TS_IPv4Network.backboneRouter[10].ppp[5].queue 	"packets received by queue" 	1621
scalar GTITM_TS_IPv4Network.backboneRouter[10].ppp[5].queue 	"packets dropped by queue" 	0
scalar GTITM_TS_IPv4Network.backboneRouter[10].ppp[6].queue 	"packets received by queue" 	988
scalar GTITM_TS_IPv4Network.backboneRouter[10].ppp[6].queue 	"packets dropped by queue" 	0
scalar GTITM_TS_IPv4Network.backboneRouter[10].ppp[7].queue 	"packets received by queue" 	10383
scalar GTITM_TS_IPv4Network.backboneRouter[10].ppp[7].queue 	"packets dropped by queue" 	0
scalar GTITM_TS_IPv4Network.backboneRouter[10].ppp[8].queue 	"packets received by queue" 	3499
scalar GTITM_TS_IPv4Network.backboneRouter[10].ppp[8].queue 	"packets dropped by queue" 	0
scalar GTITM_TS_IPv4Network.backboneRouter[10].ppp[9].queue 	"packets received by queue" 	1472
scalar GTITM_TS_IPv4Network.backboneRouter[10].ppp[9].queue 	"packets dropped by queue" 	0
scalar GTITM_TS_IPv4Network.backboneRouter[10].ppp[10].queue 	"packets received by queue" 	1103
scalar GTITM_TS_IPv4Network.backboneRouter[10].ppp[10].queue 	"packets dropped by queue" 	0
scalar GTITM_TS_IPv4Network.backboneRouter[11].networkLayer.arp 	"ARP requests sent" 	0
scalar GTITM_TS_IPv4Network.backboneRouter[11].networkLayer.arp 	"ARP replies sent" 	0
scalar GTITM_TS_IPv4Network.backboneRouter[11].networkLayer.arp 	"ARP resolutions" 	0
scalar GTITM_TS_IPv4Network.backboneRouter[11].networkLayer.arp 	"failed ARP resolutions" 	0
scalar GTITM_TS_IPv4Network.backboneRouter[11].ppp[0].queue 	"packets received by queue" 	0
scalar GTITM_TS_IPv4Network.backboneRouter[11].ppp[0].queue 	"packets dropped by queue" 	0
scalar GTITM_TS_IPv4Network.backboneRouter[11].ppp[1].queue 	"packets received by queue" 	1559
scalar GTITM_TS_IPv4Network.backboneRouter[11].ppp[1].queue 	"packets dropped by queue" 	0
scalar GTITM_TS_IPv4Network.backboneRouter[11].ppp[2].queue 	"packets received by queue" 	1740
scalar GTITM_TS_IPv4Network.backboneRouter[11].ppp[2].queue 	"packets dropped by queue" 	0
scalar GTITM_TS_IPv4Network.backboneRouter[11].ppp[3].queue 	"packets received by queue" 	2492
scalar GTITM_TS_IPv4Network.backboneRouter[11].ppp[3].queue 	"packets dropped by queue" 	0
scalar GTITM_TS_IPv4Network.backboneRouter[11].ppp[4].queue 	"packets received by queue" 	4076
scalar GTITM_TS_IPv4Network.backboneRouter[11].ppp[4].queue 	"packets dropped by queue" 	0
scalar GTITM_TS_IPv4Network.backboneRouter[11].ppp[5].queue 	"packets received by queue" 	11227
scalar GTITM_TS_IPv4Network.backboneRouter[11].ppp[5].queue 	"packets dropped by queue" 	0
scalar GTITM_TS_IPv4Network.backboneRouter[11].ppp[6].queue 	"packets received by queue" 	6247
scalar GTITM_TS_IPv4Network.backboneRouter[11].ppp[6].queue 	"packets dropped by queue" 	0
scalar GTITM_TS_IPv4Network.backboneRouter[12].networkLayer.arp 	"ARP requests sent" 	0
scalar GTITM_TS_IPv4Network.backboneRouter[12].networkLayer.arp 	"ARP replies sent" 	0
scalar GTITM_TS_IPv4Network.backboneRouter[12].networkLayer.arp 	"ARP resolutions" 	0
scalar GTITM_TS_IPv4Network.backboneRouter[12].networkLayer.arp 	"failed ARP resolutions" 	0
scalar GTITM_TS_IPv4Network.backboneRouter[12].ppp[0].queue 	"packets received by queue" 	1210
scalar GTITM_TS_IPv4Network.backboneRouter[12].ppp[0].queue 	"packets dropped by queue" 	0
scalar GTITM_TS_IPv4Network.backboneRouter[12].ppp[1].queue 	"packets received by queue" 	67
scalar GTITM_TS_IPv4Network.backboneRouter[12].ppp[1].queue 	"packets dropped by queue" 	0
scalar GTITM_TS_IPv4Network.backboneRouter[12].ppp[2].queue 	"packets received by queue" 	2209
scalar GTITM_TS_IPv4Network.backboneRouter[12].ppp[2].queue 	"packets dropped by queue" 	0
scalar GTITM_TS_IPv4Network.backboneRouter[12].ppp[3].queue 	"packets received by queue" 	3237
scalar GTITM_TS_IPv4Network.backboneRouter[12].ppp[3].queue 	"packets dropped by queue" 	0
scalar GTITM_TS_IPv4Network.backboneRouter[12].ppp[4].queue 	"packets received by queue" 	0
scalar GTITM_TS_IPv4Network.backboneRouter[12].ppp[4].queue 	"packets dropped by queue" 	0
scalar GTITM_TS_IPv4Network.backboneRouter[12].ppp[5].queue 	"packets received by queue" 	0
scalar GTITM_TS_IPv4Network.backboneRouter[12].ppp[5].queue 	"packets dropped by queue" 	0
scalar GTITM_TS_IPv4Network.backboneRouter[12].ppp[6].queue 	"packets received by queue" 	3619
scalar GTITM_TS_IPv4Network.backboneRouter[12].ppp[6].queue 	"packets dropped by queue" 	0
scalar GTITM_TS_IPv4Network.backboneRouter[13].networkLayer.arp 	"ARP requests sent" 	0
scalar GTITM_TS_IPv4Network.backboneRouter[13].networkLayer.arp 	"ARP replies sent" 	0
scalar GTITM_TS_IPv4Network.backboneRouter[13].networkLayer.arp 	"ARP resolutions" 	0
scalar GTITM_TS_IPv4Network.backboneRouter[13].networkLayer.arp 	"failed ARP resolutions" 	0
scalar GTITM_TS_IPv4Network.backboneRouter[13].ppp[0].queue 	"packets received by queue" 	1251
scalar GTITM_TS_IPv4Network.backboneRouter[13].ppp[0].queue 	"packets dropped by queue" 	0
scalar GTITM_TS_IPv4Network.backboneRouter[13].ppp[1].queue 	"packets received by queue" 	686
scalar GTITM_TS_IPv4Network.backboneRouter[13].ppp[1].queue 	"packets dropped by queue" 	0
scalar GTITM_TS_IPv4Network.backboneRouter[13].ppp[2].queue 	"packets received by queue" 	109
scalar GTITM_TS_IPv4Network.backboneRouter[13].ppp[2].queue 	"packets dropped by queue" 	0
scalar GTITM_TS_IPv4Network.backboneRouter[13].ppp[3].queue 	"packets received by queue" 	5473
scalar GTITM_TS_IPv4Network.backboneRouter[13].ppp[3].queue 	"packets dropped by queue" 	0
scalar GTITM_TS_IPv4Network.backboneRouter[13].ppp[4].queue 	"packets received by queue" 	621
scalar GTITM_TS_IPv4Network.backboneRouter[13].ppp[4].queue 	"packets dropped by queue" 	0
scalar GTITM_TS_IPv4Network.backboneRouter[13].ppp[5].queue 	"packets received by queue" 	286
scalar GTITM_TS_IPv4Network.backboneRouter[13].ppp[5].queue 	"packets dropped by queue" 	0
scalar GTITM_TS_IPv4Network.backboneRouter[13].ppp[6].queue 	"packets received by queue" 	4811
scalar GTITM_TS_IPv4Network.backboneRouter[13].ppp[6].queue 	"packets dropped by queue" 	0
scalar GTITM_TS_IPv4Network.backboneRouter[14].networkLayer.arp 	"ARP requests sent" 	0
scalar GTITM_TS_IPv4Network.backboneRouter[14].networkLayer.arp 	"ARP replies sent" 	0
scalar GTITM_TS_IPv4Network.backboneRouter[14].networkLayer.arp 	"ARP resolutions" 	0
scalar GTITM_TS_IPv4Network.backboneRouter[14].networkLayer.arp 	"failed ARP resolutions" 	0
scalar GTITM_TS_IPv4Network.backboneRouter[14].ppp[0].queue 	"packets received by queue" 	5716
scalar GTITM_TS_IPv4Network.backboneRouter[14].ppp[0].queue 	"packets dropped by queue" 	0
scalar GTITM_TS_IPv4Network.backboneRouter[14].ppp[1].queue 	"packets received by queue" 	2228
scalar GTITM_TS_IPv4Network.backboneRouter[14].ppp[1].queue 	"packets dropped by queue" 	0
scalar GTITM_TS_IPv4Network.backboneRouter[14].ppp[2].queue 	"packets received by queue" 	1673
scalar GTITM_TS_IPv4Network.backboneRouter[14].ppp[2].queue 	"packets dropped by queue" 	0
scalar GTITM_TS_IPv4Network.backboneRouter[14].ppp[3].queue 	"packets received by queue" 	0
scalar GTITM_TS_IPv4Network.backboneRouter[14].ppp[3].queue 	"packets dropped by queue" 	0
scalar GTITM_TS_IPv4Network.backboneRouter[14].ppp[4].queue 	"packets received by queue" 	62
scalar GTITM_TS_IPv4Network.backboneRouter[14].ppp[4].queue 	"packets dropped by queue" 	0
scalar GTITM_TS_IPv4Network.backboneRouter[14].ppp[5].queue 	"packets received by queue" 	94
scalar GTITM_TS_IPv4Network.backboneRouter[14].ppp[5].queue 	"packets dropped by queue" 	0
scalar GTITM_TS_IPv4Network.backboneRouter[14].ppp[6].queue 	"packets received by queue" 	107
scalar GTITM_TS_IPv4Network.backboneRouter[14].ppp[6].queue 	"packets dropped by queue" 	0
scalar GTITM_TS_IPv4Network.backboneRouter[14].ppp[7].queue 	"packets received by queue" 	64
scalar GTITM_TS_IPv4Network.backboneRouter[14].ppp[7].queue 	"packets dropped by queue" 	0
scalar GTITM_TS_IPv4Network.backboneRouter[15].networkLayer.arp 	"ARP requests sent" 	0
scalar GTITM_TS_IPv4Network.backboneRouter[15].networkLayer.arp 	"ARP replies sent" 	0
scalar GTITM_TS_IPv4Network.backboneRouter[15].networkLayer.arp 	"ARP resolutions" 	0
scalar GTITM_TS_IPv4Network.backboneRouter[15].networkLayer.arp 	"failed ARP resolutions" 	0
scalar GTITM_TS_IPv4Network.backboneRouter[15].ppp[0].queue 	"packets received by queue" 	472
scalar GTITM_TS_IPv4Network.backboneRouter[15].ppp[0].queue 	"packets dropped by queue" 	0
scalar GTITM_TS_IPv4Network.backboneRouter[15].ppp[1].queue 	"packets received by queue" 	68
scalar GTITM_TS_IPv4Network.backboneRouter[15].ppp[1].queue 	"packets dropped by queue" 	0
scalar GTITM_TS_IPv4Network.backboneRouter[15].ppp[2].queue 	"packets received by queue" 	114
scalar GTITM_TS_IPv4Network.backboneRouter[15].ppp[2].queue 	"packets dropped by queue" 	0
scalar GTITM_TS_IPv4Network.backboneRouter[15].ppp[3].queue 	"packets received by queue" 	0
scalar GTITM_TS_IPv4Network.backboneRouter[15].ppp[3].queue 	"packets dropped by queue" 	0
scalar GTITM_TS_IPv4Network.backboneRouter[15].ppp[4].queue 	"packets received by queue" 	0
scalar GTITM_TS_IPv4Network.backboneRouter[15].ppp[4].queue 	"packets dropped by queue" 	0
scalar GTITM_TS_IPv4Network.backboneRouter[15].ppp[5].queue 	"packets received by queue" 	1818
scalar GTITM_TS_IPv4Network.backboneRouter[15].ppp[5].queue 	"packets dropped by queue" 	0
scalar GTITM_TS_IPv4Network.backboneRouter[15].ppp[6].queue 	"packets received by queue" 	0
scalar GTITM_TS_IPv4Network.backboneRouter[15].ppp[6].queue 	"packets dropped by queue" 	0
scalar GTITM_TS_IPv4Network.backboneRouter[16].networkLayer.arp 	"ARP requests sent" 	0
scalar GTITM_TS_IPv4Network.backboneRouter[16].networkLayer.arp 	"ARP replies sent" 	0
scalar GTITM_TS_IPv4Network.backboneRouter[16].networkLayer.arp 	"ARP resolutions" 	0
scalar GTITM_TS_IPv4Network.backboneRouter[16].networkLayer.arp 	"failed ARP resolutions" 	0
scalar GTITM_TS_IPv4Network.backboneRouter[16].ppp[0].queue 	"packets received by queue" 	9684
scalar GTITM_TS_IPv4Network.backboneRouter[16].ppp[0].queue 	"packets dropped by queue" 	0
scalar GTITM_TS_IPv4Network.backboneRouter[16].ppp[1].queue 	"packets received by queue" 	1648
scalar GTITM_TS_IPv4Network.backboneRouter[16].ppp[1].queue 	"packets dropped by queue" 	0
scalar GTITM_TS_IPv4Network.backboneRouter[16].ppp[2].queue 	"packets received by queue" 	61
scalar GTITM_TS_IPv4Network.backboneRouter[16].ppp[2].queue 	"packets dropped by queue" 	0
scalar GTITM_TS_IPv4Network.backboneRouter[16].ppp[3].queue 	"packets received by queue" 	0
scalar GTITM_TS_IPv4Network.backboneRouter[16].ppp[3].queue 	"packets dropped by queue" 	0
scalar GTITM_TS_IPv4Network.backboneRouter[16].ppp[4].queue 	"packets received by queue" 	0
scalar GTITM_TS_IPv4Network.backboneRouter[16].ppp[4].queue 	"packets dropped by queue" 	0
scalar GTITM_TS_IPv4Network.backboneRouter[16].ppp[5].queue 	"packets received by queue" 	3726
scalar GTITM_TS_IPv4Network.backboneRouter[16].ppp[5].queue 	"packets dropped by queue" 	0
scalar GTITM_TS_IPv4Network.backboneRouter[16].ppp[6].queue 	"packets received by queue" 	4499
scalar GTITM_TS_IPv4Network.backboneRouter[16].ppp[6].queue 	"packets dropped by queue" 	0
scalar GTITM_TS_IPv4Network.backboneRouter[16].ppp[7].queue 	"packets received by queue" 	5040
scalar GTITM_TS_IPv4Network.backboneRouter[16].ppp[7].queue 	"packets dropped by queue" 	0
scalar GTITM_TS_IPv4Network.backboneRouter[16].ppp[8].queue 	"packets received by queue" 	5064
scalar GTITM_TS_IPv4Network.backboneRouter[16].ppp[8].queue 	"packets dropped by queue" 	0
scalar GTITM_TS_IPv4Network.backboneRouter[17].networkLayer.arp 	"ARP requests sent" 	0
scalar GTITM_TS_IPv4Network.backboneRouter[17].networkLayer.arp 	"ARP replies sent" 	0
scalar GTITM_TS_IPv4Network.backboneRouter[17].networkLayer.arp 	"ARP resolutions" 	0
scalar GTITM_TS_IPv4Network.backboneRouter[17].networkLayer.arp 	"failed ARP resolutions" 	0
scalar GTITM_TS_IPv4Network.backboneRouter[17].ppp[0].queue 	"packets received by queue" 	637
scalar GTITM_TS_IPv4Network.backboneRouter[17].ppp[0].queue 	"packets dropped by queue" 	0
scalar GTITM_TS_IPv4Network.backboneRouter[17].ppp[1].queue 	"packets received by queue" 	72
scalar GTITM_TS_IPv4Network.backboneRouter[17].ppp[1].queue 	"packets dropped by queue" 	0
scalar GTITM_TS_IPv4Network.backboneRouter[17].ppp[2].queue 	"packets received by queue" 	1597
scalar GTITM_TS_IPv4Network.backboneRouter[17].ppp[2].queue 	"packets dropped by queue" 	0
scalar GTITM_TS_IPv4Network.backboneRouter[17].ppp[3].queue 	"packets received by queue" 	3090
scalar GTITM_TS_IPv4Network.backboneRouter[17].ppp[3].queue 	"packets dropped by queue" 	0
scalar GTITM_TS_IPv4Network.backboneRouter[17].ppp[4].queue 	"packets received by queue" 	64
scalar GTITM_TS_IPv4Network.backboneRouter[17].ppp[4].queue 	"packets dropped by queue" 	0
scalar GTITM_TS_IPv4Network.backboneRouter[17].ppp[5].queue 	"packets received by queue" 	2769
scalar GTITM_TS_IPv4Network.backboneRouter[17].ppp[5].queue 	"packets dropped by queue" 	0
scalar GTITM_TS_IPv4Network.backboneRouter[18].networkLayer.arp 	"ARP requests sent" 	0
scalar GTITM_TS_IPv4Network.backboneRouter[18].networkLayer.arp 	"ARP replies sent" 	0
scalar GTITM_TS_IPv4Network.backboneRouter[18].networkLayer.arp 	"ARP resolutions" 	0
scalar GTITM_TS_IPv4Network.backboneRouter[18].networkLayer.arp 	"failed ARP resolutions" 	0
scalar GTITM_TS_IPv4Network.backboneRouter[18].ppp[0].queue 	"packets received by queue" 	2736
scalar GTITM_TS_IPv4Network.backboneRouter[18].ppp[0].queue 	"packets dropped by queue" 	0
scalar GTITM_TS_IPv4Network.backboneRouter[18].ppp[1].queue 	"packets received by queue" 	1244
scalar GTITM_TS_IPv4Network.backboneRouter[18].ppp[1].queue 	"packets dropped by queue" 	0
scalar GTITM_TS_IPv4Network.backboneRouter[18].ppp[2].queue 	"packets received by queue" 	1326
scalar GTITM_TS_IPv4Network.backboneRouter[18].ppp[2].queue 	"packets dropped by queue" 	0
scalar GTITM_TS_IPv4Network.backboneRouter[18].ppp[3].queue 	"packets received by queue" 	0
scalar GTITM_TS_IPv4Network.backboneRouter[18].ppp[3].queue 	"packets dropped by queue" 	0
scalar GTITM_TS_IPv4Network.backboneRouter[18].ppp[4].queue 	"packets received by queue" 	3616
scalar GTITM_TS_IPv4Network.backboneRouter[18].ppp[4].queue 	"packets dropped by queue" 	0
scalar GTITM_TS_IPv4Network.backboneRouter[18].ppp[5].queue 	"packets received by queue" 	7876
scalar GTITM_TS_IPv4Network.backboneRouter[18].ppp[5].queue 	"packets dropped by queue" 	0
scalar GTITM_TS_IPv4Network.backboneRouter[19].networkLayer.arp 	"ARP requests sent" 	0
scalar GTITM_TS_IPv4Network.backboneRouter[19].networkLayer.arp 	"ARP replies sent" 	0
scalar GTITM_TS_IPv4Network.backboneRouter[19].networkLayer.arp 	"ARP resolutions" 	0
scalar GTITM_TS_IPv4Network.backboneRouter[19].networkLayer.arp 	"failed ARP resolutions" 	0
scalar GTITM_TS_IPv4Network.backboneRouter[19].ppp[0].queue 	"packets received by queue" 	0
scalar GTITM_TS_IPv4Network.backboneRouter[19].ppp[0].queue 	"packets dropped by queue" 	0
scalar GTITM_TS_IPv4Network.backboneRouter[19].ppp[1].queue 	"packets received by queue" 	0
scalar GTITM_TS_IPv4Network.backboneRouter[19].ppp[1].queue 	"packets dropped by queue" 	0
scalar GTITM_TS_IPv4Network.backboneRouter[19].ppp[2].queue 	"packets received by queue" 	0
scalar GTITM_TS_IPv4Network.backboneRouter[19].ppp[2].queue 	"packets dropped by queue" 	0
scalar GTITM_TS_IPv4Network.backboneRouter[19].ppp[3].queue 	"packets received by queue" 	0
scalar GTITM_TS_IPv4Network.backboneRouter[19].ppp[3].queue 	"packets dropped by queue" 	0
scalar GTITM_TS_IPv4Network.backboneRouter[19].ppp[4].queue 	"packets received by queue" 	0
scalar GTITM_TS_IPv4Network.backboneRouter[19].ppp[4].queue 	"packets dropped by queue" 	0
scalar GTITM_TS_IPv4Network.backboneRouter[20].networkLayer.arp 	"ARP requests sent" 	0
scalar GTITM_TS_IPv4Network.backboneRouter[20].networkLayer.arp 	"ARP replies sent" 	0
scalar GTITM_TS_IPv4Network.backboneRouter[20].networkLayer.arp 	"ARP resolutions" 	0
scalar GTITM_TS_IPv4Network.backboneRouter[20].networkLayer.arp 	"failed ARP resolutions" 	0
scalar GTITM_TS_IPv4Network.backboneRouter[20].ppp[0].queue 	"packets received by queue" 	2324
scalar GTITM_TS_IPv4Network.backboneRouter[20].ppp[0].queue 	"packets dropped by queue" 	0
scalar GTITM_TS_IPv4Network.backboneRouter[20].ppp[1].queue 	"packets received by queue" 	10165
scalar GTITM_TS_IPv4Network.backboneRouter[20].ppp[1].queue 	"packets dropped by queue" 	0
scalar GTITM_TS_IPv4Network.backboneRouter[20].ppp[2].queue 	"packets received by queue" 	0
scalar GTITM_TS_IPv4Network.backboneRouter[20].ppp[2].queue 	"packets dropped by queue" 	0
scalar GTITM_TS_IPv4Network.backboneRouter[20].ppp[3].queue 	"packets received by queue" 	0
scalar GTITM_TS_IPv4Network.backboneRouter[20].ppp[3].queue 	"packets dropped by queue" 	0
scalar GTITM_TS_IPv4Network.backboneRouter[20].ppp[4].queue 	"packets received by queue" 	9708
scalar GTITM_TS_IPv4Network.backboneRouter[20].ppp[4].queue 	"packets dropped by queue" 	0
scalar GTITM_TS_IPv4Network.backboneRouter[20].ppp[5].queue 	"packets received by queue" 	6394
scalar GTITM_TS_IPv4Network.backboneRouter[20].ppp[5].queue 	"packets dropped by queue" 	0
scalar GTITM_TS_IPv4Network.backboneRouter[20].ppp[6].queue 	"packets received by queue" 	10314
scalar GTITM_TS_IPv4Network.backboneRouter[20].ppp[6].queue 	"packets dropped by queue" 	0
scalar GTITM_TS_IPv4Network.backboneRouter[21].networkLayer.arp 	"ARP requests sent" 	0
scalar GTITM_TS_IPv4Network.backboneRouter[21].networkLayer.arp 	"ARP replies sent" 	0
scalar GTITM_TS_IPv4Network.backboneRouter[21].networkLayer.arp 	"ARP resolutions" 	0
scalar GTITM_TS_IPv4Network.backboneRouter[21].networkLayer.arp 	"failed ARP resolutions" 	0
scalar GTITM_TS_IPv4Network.backboneRouter[21].ppp[0].queue 	"packets received by queue" 	158
scalar GTITM_TS_IPv4Network.backboneRouter[21].ppp[0].queue 	"packets dropped by queue" 	0
scalar GTITM_TS_IPv4Network.backboneRouter[21].ppp[1].queue 	"packets received by queue" 	58
scalar GTITM_TS_IPv4Network.backboneRouter[21].ppp[1].queue 	"packets dropped by queue" 	0
scalar GTITM_TS_IPv4Network.backboneRouter[21].ppp[2].queue 	"packets received by queue" 	104
scalar GTITM_TS_IPv4Network.backboneRouter[21].ppp[2].queue 	"packets dropped by queue" 	0
scalar GTITM_TS_IPv4Network.backboneRouter[21].ppp[3].queue 	"packets received by queue" 	90
scalar GTITM_TS_IPv4Network.backboneRouter[21].ppp[3].queue 	"packets dropped by queue" 	0
scalar GTITM_TS_IPv4Network.backboneRouter[21].ppp[4].queue 	"packets received by queue" 	0
scalar GTITM_TS_IPv4Network.backboneRouter[21].ppp[4].queue 	"packets dropped by queue" 	0
scalar GTITM_TS_IPv4Network.backboneRouter[21].ppp[5].queue 	"packets received by queue" 	1912
scalar GTITM_TS_IPv4Network.backboneRouter[21].ppp[5].queue 	"packets dropped by queue" 	0
scalar GTITM_TS_IPv4Network.backboneRouter[21].ppp[6].queue 	"packets received by queue" 	5910
scalar GTITM_TS_IPv4Network.backboneRouter[21].ppp[6].queue 	"packets dropped by queue" 	0
scalar GTITM_TS_IPv4Network.backboneRouter[22].networkLayer.arp 	"ARP requests sent" 	0
scalar GTITM_TS_IPv4Network.backboneRouter[22].networkLayer.arp 	"ARP replies sent" 	0
scalar GTITM_TS_IPv4Network.backboneRouter[22].networkLayer.arp 	"ARP resolutions" 	0
scalar GTITM_TS_IPv4Network.backboneRouter[22].networkLayer.arp 	"failed ARP resolutions" 	0
scalar GTITM_TS_IPv4Network.backboneRouter[22].ppp[0].queue 	"packets received by queue" 	4279
scalar GTITM_TS_IPv4Network.backboneRouter[22].ppp[0].queue 	"packets dropped by queue" 	0
scalar GTITM_TS_IPv4Network.backboneRouter[22].ppp[1].queue 	"packets received by queue" 	2568
scalar GTITM_TS_IPv4Network.backboneRouter[22].ppp[1].queue 	"packets dropped by queue" 	0
scalar GTITM_TS_IPv4Network.backboneRouter[22].ppp[2].queue 	"packets received by queue" 	4214
scalar GTITM_TS_IPv4Network.backboneRouter[22].ppp[2].queue 	"packets dropped by queue" 	0
scalar GTITM_TS_IPv4Network.backboneRouter[22].ppp[3].queue 	"packets received by queue" 	820
scalar GTITM_TS_IPv4Network.backboneRouter[22].ppp[3].queue 	"packets dropped by queue" 	0
scalar GTITM_TS_IPv4Network.backboneRouter[22].ppp[4].queue 	"packets received by queue" 	2592
scalar GTITM_TS_IPv4Network.backboneRouter[22].ppp[4].queue 	"packets dropped by queue" 	0
scalar GTITM_TS_IPv4Network.backboneRouter[23].networkLayer.arp 	"ARP requests sent" 	0
scalar GTITM_TS_IPv4Network.backboneRouter[23].networkLayer.arp 	"ARP replies sent" 	0
scalar GTITM_TS_IPv4Network.backboneRouter[23].networkLayer.arp 	"ARP resolutions" 	0
scalar GTITM_TS_IPv4Network.backboneRouter[23].networkLayer.arp 	"failed ARP resolutions" 	0
scalar GTITM_TS_IPv4Network.backboneRouter[23].ppp[0].queue 	"packets received by queue" 	3385
scalar GTITM_TS_IPv4Network.backboneRouter[23].ppp[0].queue 	"packets dropped by queue" 	0
scalar GTITM_TS_IPv4Network.backboneRouter[23].ppp[1].queue 	"packets received by queue" 	3351
scalar GTITM_TS_IPv4Network.backboneRouter[23].ppp[1].queue 	"packets dropped by queue" 	0
scalar GTITM_TS_IPv4Network.backboneRouter[23].ppp[2].queue 	"packets received by queue" 	0
scalar GTITM_TS_IPv4Network.backboneRouter[23].ppp[2].queue 	"packets dropped by queue" 	0
scalar GTITM_TS_IPv4Network.backboneRouter[23].ppp[3].queue 	"packets received by queue" 	1152
scalar GTITM_TS_IPv4Network.backboneRouter[23].ppp[3].queue 	"packets dropped by queue" 	0
scalar GTITM_TS_IPv4Network.backboneRouter[23].ppp[4].queue 	"packets received by queue" 	1979
scalar GTITM_TS_IPv4Network.backboneRouter[23].ppp[4].queue 	"packets dropped by queue" 	0
scalar GTITM_TS_IPv4Network.backboneRouter[23].ppp[5].queue 	"packets received by queue" 	3178
scalar GTITM_TS_IPv4Network.backboneRouter[23].ppp[5].queue 	"packets dropped by queue" 	0
scalar GTITM_TS_IPv4Network.backboneRouter[23].ppp[6].queue 	"packets received by queue" 	5177
scalar GTITM_TS_IPv4Network.backboneRouter[23].ppp[6].queue 	"packets dropped by queue" 	0
scalar GTITM_TS_IPv4Network.backboneRouter[23].ppp[7].queue 	"packets received by queue" 	1671
scalar GTITM_TS_IPv4Network.backboneRouter[23].ppp[7].queue 	"packets dropped by queue" 	0
scalar GTITM_TS_IPv4Network.backboneRouter[23].ppp[8].queue 	"packets received by queue" 	3424
scalar GTITM_TS_IPv4Network.backboneRouter[23].ppp[8].queue 	"packets dropped by queue" 	0
scalar GTITM_TS_IPv4Network.backboneRouter[23].ppp[9].queue 	"packets received by queue" 	11591
scalar GTITM_TS_IPv4Network.backboneRouter[23].ppp[9].queue 	"packets dropped by queue" 	0
scalar GTITM_TS_IPv4Network.backboneRouter[24].networkLayer.arp 	"ARP requests sent" 	0
scalar GTITM_TS_IPv4Network.backboneRouter[24].networkLayer.arp 	"ARP replies sent" 	0
scalar GTITM_TS_IPv4Network.backboneRouter[24].networkLayer.arp 	"ARP resolutions" 	0
scalar GTITM_TS_IPv4Network.backboneRouter[24].networkLayer.arp 	"failed ARP resolutions" 	0
scalar GTITM_TS_IPv4Network.backboneRouter[24].ppp[0].queue 	"packets received by queue" 	3058
scalar GTITM_TS_IPv4Network.backboneRouter[24].ppp[0].queue 	"packets dropped by queue" 	0
scalar GTITM_TS_IPv4Network.backboneRouter[24].ppp[1].queue 	"packets received by queue" 	7982
scalar GTITM_TS_IPv4Network.backboneRouter[24].ppp[1].queue 	"packets dropped by queue" 	0
scalar GTITM_TS_IPv4Network.backboneRouter[24].ppp[2].queue 	"packets received by queue" 	1149
scalar GTITM_TS_IPv4Network.backboneRouter[24].ppp[2].queue 	"packets dropped by queue" 	0
scalar GTITM_TS_IPv4Network.backboneRouter[24].ppp[3].queue 	"packets received by queue" 	0
scalar GTITM_TS_IPv4Network.backboneRouter[24].ppp[3].queue 	"packets dropped by queue" 	0
scalar GTITM_TS_IPv4Network.backboneRouter[24].ppp[4].queue 	"packets received by queue" 	832
scalar GTITM_TS_IPv4Network.backboneRouter[24].ppp[4].queue 	"packets dropped by queue" 	0
scalar GTITM_TS_IPv4Network.backboneRouter[24].ppp[5].queue 	"packets received by queue" 	4658
scalar GTITM_TS_IPv4Network.backboneRouter[24].ppp[5].queue 	"packets dropped by queue" 	0
scalar GTITM_TS_IPv4Network.backboneRouter[25].networkLayer.arp 	"ARP requests sent" 	0
scalar GTITM_TS_IPv4Network.backboneRouter[25].networkLayer.arp 	"ARP replies sent" 	0
scalar GTITM_TS_IPv4Network.backboneRouter[25].networkLayer.arp 	"ARP resolutions" 	0
scalar GTITM_TS_IPv4Network.backboneRouter[25].networkLayer.arp 	"failed ARP resolutions" 	0
scalar GTITM_TS_IPv4Network.backboneRouter[25].ppp[0].queue 	"packets received by queue" 	10837
scalar GTITM_TS_IPv4Network.backboneRouter[25].ppp[0].queue 	"packets dropped by queue" 	0
scalar GTITM_TS_IPv4Network.backboneRouter[25].ppp[1].queue 	"packets received by queue" 	5260
scalar GTITM_TS_IPv4Network.backboneRouter[25].ppp[1].queue 	"packets dropped by queue" 	0
scalar GTITM_TS_IPv4Network.backboneRouter[25].ppp[2].queue 	"packets received by queue" 	893
scalar GTITM_TS_IPv4Network.backboneRouter[25].ppp[2].queue 	"packets dropped by queue" 	0
scalar GTITM_TS_IPv4Network.backboneRouter[25].ppp[3].queue 	"packets received by queue" 	5837
scalar GTITM_TS_IPv4Network.backboneRouter[25].ppp[3].queue 	"packets dropped by queue" 	0
scalar GTITM_TS_IPv4Network.backboneRouter[25].ppp[4].queue 	"packets received by queue" 	0
scalar GTITM_TS_IPv4Network.backboneRouter[25].ppp[4].queue 	"packets dropped by queue" 	0
scalar GTITM_TS_IPv4Network.backboneRouter[25].ppp[5].queue 	"packets received by queue" 	8238
scalar GTITM_TS_IPv4Network.backboneRouter[25].ppp[5].queue 	"packets dropped by queue" 	0
scalar GTITM_TS_IPv4Network.backboneRouter[26].networkLayer.arp 	"ARP requests sent" 	0
scalar GTITM_TS_IPv4Network.backboneRouter[26].networkLayer.arp 	"ARP replies sent" 	0
scalar GTITM_TS_IPv4Network.backboneRouter[26].networkLayer.arp 	"ARP resolutions" 	0
scalar GTITM_TS_IPv4Network.backboneRouter[26].networkLayer.arp 	"failed ARP resolutions" 	0
scalar GTITM_TS_IPv4Network.backboneRouter[26].ppp[0].queue 	"packets received by queue" 	3434
scalar GTITM_TS_IPv4Network.backboneRouter[26].ppp[0].queue 	"packets dropped by queue" 	0
scalar GTITM_TS_IPv4Network.backboneRouter[26].ppp[1].queue 	"packets received by queue" 	2766
scalar GTITM_TS_IPv4Network.backboneRouter[26].ppp[1].queue 	"packets dropped by queue" 	0
scalar GTITM_TS_IPv4Network.backboneRouter[26].ppp[2].queue 	"packets received by queue" 	9803
scalar GTITM_TS_IPv4Network.backboneRouter[26].ppp[2].queue 	"packets dropped by queue" 	0
scalar GTITM_TS_IPv4Network.backboneRouter[26].ppp[3].queue 	"packets received by queue" 	0
scalar GTITM_TS_IPv4Network.backboneRouter[26].ppp[3].queue 	"packets dropped by queue" 	0
scalar GTITM_TS_IPv4Network.backboneRouter[26].ppp[4].queue 	"packets received by queue" 	1296
scalar GTITM_TS_IPv4Network.backboneRouter[26].ppp[4].queue 	"packets dropped by queue" 	0
scalar GTITM_TS_IPv4Network.backboneRouter[26].ppp[5].queue 	"packets received by queue" 	1466
scalar GTITM_TS_IPv4Network.backboneRouter[26].ppp[5].queue 	"packets dropped by queue" 	0
scalar GTITM_TS_IPv4Network.backboneRouter[27].networkLayer.arp 	"ARP requests sent" 	0
scalar GTITM_TS_IPv4Network.backboneRouter[27].networkLayer.arp 	"ARP replies sent" 	0
scalar GTITM_TS_IPv4Network.backboneRouter[27].networkLayer.arp 	"ARP resolutions" 	0
scalar GTITM_TS_IPv4Network.backboneRouter[27].networkLayer.arp 	"failed ARP resolutions" 	0
scalar GTITM_TS_IPv4Network.backboneRouter[27].ppp[0].queue 	"packets received by queue" 	4583
scalar GTITM_TS_IPv4Network.backboneRouter[27].ppp[0].queue 	"packets dropped by queue" 	0
scalar GTITM_TS_IPv4Network.backboneRouter[27].ppp[1].queue 	"packets received by queue" 	5177
scalar GTITM_TS_IPv4Network.backboneRouter[27].ppp[1].queue 	"packets dropped by queue" 	0
scalar GTITM_TS_IPv4Network.backboneRouter[27].ppp[2].queue 	"packets received by queue" 	1549
scalar GTITM_TS_IPv4Network.backboneRouter[27].ppp[2].queue 	"packets dropped by queue" 	0
scalar GTITM_TS_IPv4Network.backboneRouter[27].ppp[3].queue 	"packets received by queue" 	3124
scalar GTITM_TS_IPv4Network.backboneRouter[27].ppp[3].queue 	"packets dropped by queue" 	0
scalar GTITM_TS_IPv4Network.backboneRouter[28].networkLayer.arp 	"ARP requests sent" 	0
scalar GTITM_TS_IPv4Network.backboneRouter[28].networkLayer.arp 	"ARP replies sent" 	0
scalar GTITM_TS_IPv4Network.backboneRouter[28].networkLayer.arp 	"ARP resolutions" 	0
scalar GTITM_TS_IPv4Network.backboneRouter[28].networkLayer.arp 	"failed ARP resolutions" 	0
scalar GTITM_TS_IPv4Network.backboneRouter[28].ppp[0].queue 	"packets received by queue" 	9412
scalar GTITM_TS_IPv4Network.backboneRouter[28].ppp[0].queue 	"packets dropped by queue" 	0
scalar GTITM_TS_IPv4Network.backboneRouter[28].ppp[1].queue 	"packets received by queue" 	1672
scalar GTITM_TS_IPv4Network.backboneRouter[28].ppp[1].queue 	"packets dropped by queue" 	0
scalar GTITM_TS_IPv4Network.backboneRouter[28].ppp[2].queue 	"packets received by queue" 	2634
scalar GTITM_TS_IPv4Network.backboneRouter[28].ppp[2].queue 	"packets dropped by queue" 	0
scalar GTITM_TS_IPv4Network.backboneRouter[28].ppp[3].queue 	"packets received by queue" 	4940
scalar GTITM_TS_IPv4Network.backboneRouter[28].ppp[3].queue 	"packets dropped by queue" 	0
scalar GTITM_TS_IPv4Network.backboneRouter[28].ppp[4].queue 	"packets received by queue" 	0
scalar GTITM_TS_IPv4Network.backboneRouter[28].ppp[4].queue 	"packets dropped by queue" 	0
scalar GTITM_TS_IPv4Network.backboneRouter[28].ppp[5].queue 	"packets received by queue" 	0
scalar GTITM_TS_IPv4Network.backboneRouter[28].ppp[5].queue 	"packets dropped by queue" 	0
scalar GTITM_TS_IPv4Network.backboneRouter[28].ppp[6].queue 	"packets received by queue" 	1822
scalar GTITM_TS_IPv4Network.backboneRouter[28].ppp[6].queue 	"packets dropped by queue" 	0
scalar GTITM_TS_IPv4Network.backboneRouter[28].ppp[7].queue 	"packets received by queue" 	0
scalar GTITM_TS_IPv4Network.backboneRouter[28].ppp[7].queue 	"packets dropped by queue" 	0
scalar GTITM_TS_IPv4Network.backboneRouter[29].networkLayer.arp 	"ARP requests sent" 	0
scalar GTITM_TS_IPv4Network.backboneRouter[29].networkLayer.arp 	"ARP replies sent" 	0
scalar GTITM_TS_IPv4Network.backboneRouter[29].networkLayer.arp 	"ARP resolutions" 	0
scalar GTITM_TS_IPv4Network.backboneRouter[29].networkLayer.arp 	"failed ARP resolutions" 	0
scalar GTITM_TS_IPv4Network.backboneRouter[29].ppp[0].queue 	"packets received by queue" 	1288
scalar GTITM_TS_IPv4Network.backboneRouter[29].ppp[0].queue 	"packets dropped by queue" 	0
scalar GTITM_TS_IPv4Network.backboneRouter[29].ppp[1].queue 	"packets received by queue" 	1762
scalar GTITM_TS_IPv4Network.backboneRouter[29].ppp[1].queue 	"packets dropped by queue" 	0
scalar GTITM_TS_IPv4Network.backboneRouter[29].ppp[2].queue 	"packets received by queue" 	5480
scalar GTITM_TS_IPv4Network.backboneRouter[29].ppp[2].queue 	"packets dropped by queue" 	0
scalar GTITM_TS_IPv4Network.backboneRouter[30].networkLayer.arp 	"ARP requests sent" 	0
scalar GTITM_TS_IPv4Network.backboneRouter[30].networkLayer.arp 	"ARP replies sent" 	0
scalar GTITM_TS_IPv4Network.backboneRouter[30].networkLayer.arp 	"ARP resolutions" 	0
scalar GTITM_TS_IPv4Network.backboneRouter[30].networkLayer.arp 	"failed ARP resolutions" 	0
scalar GTITM_TS_IPv4Network.backboneRouter[30].ppp[0].queue 	"packets received by queue" 	0
scalar GTITM_TS_IPv4Network.backboneRouter[30].ppp[0].queue 	"packets dropped by queue" 	0
scalar GTITM_TS_IPv4Network.backboneRouter[30].ppp[1].queue 	"packets received by queue" 	0
scalar GTITM_TS_IPv4Network.backboneRouter[30].ppp[1].queue 	"packets dropped by queue" 	0
scalar GTITM_TS_IPv4Network.backboneRouter[30].ppp[2].queue 	"packets received by queue" 	0
scalar GTITM_TS_IPv4Network.backboneRouter[30].ppp[2].queue 	"packets dropped by queue" 	0
scalar GTITM_TS_IPv4Network.backboneRouter[30].ppp[3].queue 	"packets received by queue" 	0
scalar GTITM_TS_IPv4Network.backboneRouter[30].ppp[3].queue 	"packets dropped by queue" 	0
scalar GTITM_TS_IPv4Network.backboneRouter[30].ppp[4].queue 	"packets received by queue" 	0
scalar GTITM_TS_IPv4Network.backboneRouter[30].ppp[4].queue 	"packets dropped by queue" 	0
scalar GTITM_TS_IPv4Network.backboneRouter[30].ppp[5].queue 	"packets received by queue" 	0
scalar GTITM_TS_IPv4Network.backboneRouter[30].ppp[5].queue 	"packets dropped by queue" 	0
scalar GTITM_TS_IPv4Network.backboneRouter[31].networkLayer.arp 	"ARP requests sent" 	0
scalar GTITM_TS_IPv4Network.backboneRouter[31].networkLayer.arp 	"ARP replies sent" 	0
scalar GTITM_TS_IPv4Network.backboneRouter[31].networkLayer.arp 	"ARP resolutions" 	0
scalar GTITM_TS_IPv4Network.backboneRouter[31].networkLayer.arp 	"failed ARP resolutions" 	0
scalar GTITM_TS_IPv4Network.backboneRouter[31].ppp[0].queue 	"packets received by queue" 	4080
scalar GTITM_TS_IPv4Network.backboneRouter[31].ppp[0].queue 	"packets dropped by queue" 	0
scalar GTITM_TS_IPv4Network.backboneRouter[31].ppp[1].queue 	"packets received by queue" 	1761
scalar GTITM_TS_IPv4Network.backboneRouter[31].ppp[1].queue 	"packets dropped by queue" 	0
scalar GTITM_TS_IPv4Network.backboneRouter[31].ppp[2].queue 	"packets received by queue" 	3124
scalar GTITM_TS_IPv4Network.backboneRouter[31].ppp[2].queue 	"packets dropped by queue" 	0
scalar GTITM_TS_IPv4Network.backboneRouter[31].ppp[3].queue 	"packets received by queue" 	428
scalar GTITM_TS_IPv4Network.backboneRouter[31].ppp[3].queue 	"packets dropped by queue" 	0
scalar GTITM_TS_IPv4Network.backboneRouter[31].ppp[4].queue 	"packets received by queue" 	1772
scalar GTITM_TS_IPv4Network.backboneRouter[31].ppp[4].queue 	"packets dropped by queue" 	0
scalar GTITM_TS_IPv4Network.backboneRouter[31].ppp[5].queue 	"packets received by queue" 	381
scalar GTITM_TS_IPv4Network.backboneRouter[31].ppp[5].queue 	"packets dropped by queue" 	0
scalar GTITM_TS_IPv4Network.backboneRouter[31].ppp[6].queue 	"packets received by queue" 	72
scalar GTITM_TS_IPv4Network.backboneRouter[31].ppp[6].queue 	"packets dropped by queue" 	0
scalar GTITM_TS_IPv4Network.backboneRouter[31].ppp[7].queue 	"packets received by queue" 	968
scalar GTITM_TS_IPv4Network.backboneRouter[31].ppp[7].queue 	"packets dropped by queue" 	0
scalar GTITM_TS_IPv4Network.backboneRouter[32].networkLayer.arp 	"ARP requests sent" 	0
scalar GTITM_TS_IPv4Network.backboneRouter[32].networkLayer.arp 	"ARP replies sent" 	0
scalar GTITM_TS_IPv4Network.backboneRouter[32].networkLayer.arp 	"ARP resolutions" 	0
scalar GTITM_TS_IPv4Network.backboneRouter[32].networkLayer.arp 	"failed ARP resolutions" 	0
scalar GTITM_TS_IPv4Network.backboneRouter[32].ppp[0].queue 	"packets received by queue" 	1636
scalar GTITM_TS_IPv4Network.backboneRouter[32].ppp[0].queue 	"packets dropped by queue" 	0
scalar GTITM_TS_IPv4Network.backboneRouter[32].ppp[1].queue 	"packets received by queue" 	622
scalar GTITM_TS_IPv4Network.backboneRouter[32].ppp[1].queue 	"packets dropped by queue" 	0
scalar GTITM_TS_IPv4Network.backboneRouter[32].ppp[2].queue 	"packets received by queue" 	451
scalar GTITM_TS_IPv4Network.backboneRouter[32].ppp[2].queue 	"packets dropped by queue" 	0
scalar GTITM_TS_IPv4Network.backboneRouter[32].ppp[3].queue 	"packets received by queue" 	1868
scalar GTITM_TS_IPv4Network.backboneRouter[32].ppp[3].queue 	"packets dropped by queue" 	0
scalar GTITM_TS_IPv4Network.backboneRouter[32].ppp[4].queue 	"packets received by queue" 	2985
scalar GTITM_TS_IPv4Network.backboneRouter[32].ppp[4].queue 	"packets dropped by queue" 	0
scalar GTITM_TS_IPv4Network.backboneRouter[32].ppp[5].queue 	"packets received by queue" 	0
scalar GTITM_TS_IPv4Network.backboneRouter[32].ppp[5].queue 	"packets dropped by queue" 	0
scalar GTITM_TS_IPv4Network.backboneRouter[33].networkLayer.arp 	"ARP requests sent" 	0
scalar GTITM_TS_IPv4Network.backboneRouter[33].networkLayer.arp 	"ARP replies sent" 	0
scalar GTITM_TS_IPv4Network.backboneRouter[33].networkLayer.arp 	"ARP resolutions" 	0
scalar GTITM_TS_IPv4Network.backboneRouter[33].networkLayer.arp 	"failed ARP resolutions" 	0
scalar GTITM_TS_IPv4Network.backboneRouter[33].ppp[0].queue 	"packets received by queue" 	2649
scalar GTITM_TS_IPv4Network.backboneRouter[33].ppp[0].queue 	"packets dropped by queue" 	0
scalar GTITM_TS_IPv4Network.backboneRouter[33].ppp[1].queue 	"packets received by queue" 	1415
scalar GTITM_TS_IPv4Network.backboneRouter[33].ppp[1].queue 	"packets dropped by queue" 	0
scalar GTITM_TS_IPv4Network.backboneRouter[33].ppp[2].queue 	"packets received by queue" 	1582
scalar GTITM_TS_IPv4Network.backboneRouter[33].ppp[2].queue 	"packets dropped by queue" 	0
scalar GTITM_TS_IPv4Network.backboneRouter[33].ppp[3].queue 	"packets received by queue" 	596
scalar GTITM_TS_IPv4Network.backboneRouter[33].ppp[3].queue 	"packets dropped by queue" 	0
scalar GTITM_TS_IPv4Network.backboneRouter[33].ppp[4].queue 	"packets received by queue" 	4673
scalar GTITM_TS_IPv4Network.backboneRouter[33].ppp[4].queue 	"packets dropped by queue" 	0
scalar GTITM_TS_IPv4Network.backboneRouter[33].ppp[5].queue 	"packets received by queue" 	1609
scalar GTITM_TS_IPv4Network.backboneRouter[33].ppp[5].queue 	"packets dropped by queue" 	0
scalar GTITM_TS_IPv4Network.backboneRouter[33].ppp[6].queue 	"packets received by queue" 	3925
scalar GTITM_TS_IPv4Network.backboneRouter[33].ppp[6].queue 	"packets dropped by queue" 	0
scalar GTITM_TS_IPv4Network.backboneRouter[33].ppp[7].queue 	"packets received by queue" 	6185
scalar GTITM_TS_IPv4Network.backboneRouter[33].ppp[7].queue 	"packets dropped by queue" 	0
scalar GTITM_TS_IPv4Network.backboneRouter[34].networkLayer.arp 	"ARP requests sent" 	0
scalar GTITM_TS_IPv4Network.backboneRouter[34].networkLayer.arp 	"ARP replies sent" 	0
scalar GTITM_TS_IPv4Network.backboneRouter[34].networkLayer.arp 	"ARP resolutions" 	0
scalar GTITM_TS_IPv4Network.backboneRouter[34].networkLayer.arp 	"failed ARP resolutions" 	0
scalar GTITM_TS_IPv4Network.backboneRouter[34].ppp[0].queue 	"packets received by queue" 	0
scalar GTITM_TS_IPv4Network.backboneRouter[34].ppp[0].queue 	"packets dropped by queue" 	0
scalar GTITM_TS_IPv4Network.backboneRouter[34].ppp[1].queue 	"packets received by queue" 	482
scalar GTITM_TS_IPv4Network.backboneRouter[34].ppp[1].queue 	"packets dropped by queue" 	0
scalar GTITM_TS_IPv4Network.backboneRouter[34].ppp[2].queue 	"packets received by queue" 	6077
scalar GTITM_TS_IPv4Network.backboneRouter[34].ppp[2].queue 	"packets dropped by queue" 	0
scalar GTITM_TS_IPv4Network.backboneRouter[34].ppp[3].queue 	"packets received by queue" 	1460
scalar GTITM_TS_IPv4Network.backboneRouter[34].ppp[3].queue 	"packets dropped by queue" 	0
scalar GTITM_TS_IPv4Network.backboneRouter[34].ppp[4].queue 	"packets received by queue" 	508
scalar GTITM_TS_IPv4Network.backboneRouter[34].ppp[4].queue 	"packets dropped by queue" 	0
scalar GTITM_TS_IPv4Network.backboneRouter[34].ppp[5].queue 	"packets received by queue" 	4783
scalar GTITM_TS_IPv4Network.backboneRouter[34].ppp[5].queue 	"packets dropped by queue" 	0
scalar GTITM_TS_IPv4Network.backboneRouter[34].ppp[6].queue 	"packets received by queue" 	35
scalar GTITM_TS_IPv4Network.backboneRouter[34].ppp[6].queue 	"packets dropped by queue" 	0
scalar GTITM_TS_IPv4Network.backboneRouter[34].ppp[7].queue 	"packets received by queue" 	2057
scalar GTITM_TS_IPv4Network.backboneRouter[34].ppp[7].queue 	"packets dropped by queue" 	0
scalar GTITM_TS_IPv4Network.backboneRouter[35].networkLayer.arp 	"ARP requests sent" 	0
scalar GTITM_TS_IPv4Network.backboneRouter[35].networkLayer.arp 	"ARP replies sent" 	0
scalar GTITM_TS_IPv4Network.backboneRouter[35].networkLayer.arp 	"ARP resolutions" 	0
scalar GTITM_TS_IPv4Network.backboneRouter[35].networkLayer.arp 	"failed ARP resolutions" 	0
scalar GTITM_TS_IPv4Network.backboneRouter[35].ppp[0].queue 	"packets received by queue" 	908
scalar GTITM_TS_IPv4Network.backboneRouter[35].ppp[0].queue 	"packets dropped by queue" 	0
scalar GTITM_TS_IPv4Network.backboneRouter[35].ppp[1].queue 	"packets received by queue" 	165
scalar GTITM_TS_IPv4Network.backboneRouter[35].ppp[1].queue 	"packets dropped by queue" 	0
scalar GTITM_TS_IPv4Network.backboneRouter[35].ppp[2].queue 	"packets received by queue" 	677
scalar GTITM_TS_IPv4Network.backboneRouter[35].ppp[2].queue 	"packets dropped by queue" 	0
scalar GTITM_TS_IPv4Network.backboneRouter[35].ppp[3].queue 	"packets received by queue" 	465
scalar GTITM_TS_IPv4Network.backboneRouter[35].ppp[3].queue 	"packets dropped by queue" 	0
scalar GTITM_TS_IPv4Network.backboneRouter[35].ppp[4].queue 	"packets received by queue" 	1849
scalar GTITM_TS_IPv4Network.backboneRouter[35].ppp[4].queue 	"packets dropped by queue" 	0
scalar GTITM_TS_IPv4Network.backboneRouter[35].ppp[5].queue 	"packets received by queue" 	0
scalar GTITM_TS_IPv4Network.backboneRouter[35].ppp[5].queue 	"packets dropped by queue" 	0
scalar GTITM_TS_IPv4Network.backboneRouter[35].ppp[6].queue 	"packets received by queue" 	6638
scalar GTITM_TS_IPv4Network.backboneRouter[35].ppp[6].queue 	"packets dropped by queue" 	0
scalar GTITM_TS_IPv4Network.backboneRouter[35].ppp[7].queue 	"packets received by queue" 	286
scalar GTITM_TS_IPv4Network.backboneRouter[35].ppp[7].queue 	"packets dropped by queue" 	0
scalar GTITM_TS_IPv4Network.backboneRouter[36].networkLayer.arp 	"ARP requests sent" 	0
scalar GTITM_TS_IPv4Network.backboneRouter[36].networkLayer.arp 	"ARP replies sent" 	0
scalar GTITM_TS_IPv4Network.backboneRouter[36].networkLayer.arp 	"ARP resolutions" 	0
scalar GTITM_TS_IPv4Network.backboneRouter[36].networkLayer.arp 	"failed ARP resolutions" 	0
scalar GTITM_TS_IPv4Network.backboneRouter[36].ppp[0].queue 	"packets received by queue" 	315
scalar GTITM_TS_IPv4Network.backboneRouter[36].ppp[0].queue 	"packets dropped by queue" 	0
scalar GTITM_TS_IPv4Network.backboneRouter[36].ppp[1].queue 	"packets received by queue" 	5004
scalar GTITM_TS_IPv4Network.backboneRouter[36].ppp[1].queue 	"packets dropped by queue" 	0
scalar GTITM_TS_IPv4Network.backboneRouter[36].ppp[2].queue 	"packets received by queue" 	1433
scalar GTITM_TS_IPv4Network.backboneRouter[36].ppp[2].queue 	"packets dropped by queue" 	0
scalar GTITM_TS_IPv4Network.backboneRouter[36].ppp[3].queue 	"packets received by queue" 	1706
scalar GTITM_TS_IPv4Network.backboneRouter[36].ppp[3].queue 	"packets dropped by queue" 	0
scalar GTITM_TS_IPv4Network.backboneRouter[36].ppp[4].queue 	"packets received by queue" 	148
scalar GTITM_TS_IPv4Network.backboneRouter[36].ppp[4].queue 	"packets dropped by queue" 	0
scalar GTITM_TS_IPv4Network.backboneRouter[37].networkLayer.arp 	"ARP requests sent" 	0
scalar GTITM_TS_IPv4Network.backboneRouter[37].networkLayer.arp 	"ARP replies sent" 	0
scalar GTITM_TS_IPv4Network.backboneRouter[37].networkLayer.arp 	"ARP resolutions" 	0
scalar GTITM_TS_IPv4Network.backboneRouter[37].networkLayer.arp 	"failed ARP resolutions" 	0
scalar GTITM_TS_IPv4Network.backboneRouter[37].ppp[0].queue 	"packets received by queue" 	644
scalar GTITM_TS_IPv4Network.backboneRouter[37].ppp[0].queue 	"packets dropped by queue" 	0
scalar GTITM_TS_IPv4Network.backboneRouter[37].ppp[1].queue 	"packets received by queue" 	236
scalar GTITM_TS_IPv4Network.backboneRouter[37].ppp[1].queue 	"packets dropped by queue" 	0
scalar GTITM_TS_IPv4Network.backboneRouter[37].ppp[2].queue 	"packets received by queue" 	357
scalar GTITM_TS_IPv4Network.backboneRouter[37].ppp[2].queue 	"packets dropped by queue" 	0
scalar GTITM_TS_IPv4Network.backboneRouter[37].ppp[3].queue 	"packets received by queue" 	2040
scalar GTITM_TS_IPv4Network.backboneRouter[37].ppp[3].queue 	"packets dropped by queue" 	0
scalar GTITM_TS_IPv4Network.backboneRouter[37].ppp[4].queue 	"packets received by queue" 	0
scalar GTITM_TS_IPv4Network.backboneRouter[37].ppp[4].queue 	"packets dropped by queue" 	0
scalar GTITM_TS_IPv4Network.backboneRouter[37].ppp[5].queue 	"packets received by queue" 	3371
scalar GTITM_TS_IPv4Network.backboneRouter[37].ppp[5].queue 	"packets dropped by queue" 	0
scalar GTITM_TS_IPv4Network.backboneRouter[38].networkLayer.arp 	"ARP requests sent" 	0
scalar GTITM_TS_IPv4Network.backboneRouter[38].networkLayer.arp 	"ARP replies sent" 	0
scalar GTITM_TS_IPv4Network.backboneRouter[38].networkLayer.arp 	"ARP resolutions" 	0
scalar GTITM_TS_IPv4Network.backboneRouter[38].networkLayer.arp 	"failed ARP resolutions" 	0
scalar GTITM_TS_IPv4Network.backboneRouter[38].ppp[0].queue 	"packets received by queue" 	2273
scalar GTITM_TS_IPv4Network.backboneRouter[38].ppp[0].queue 	"packets dropped by queue" 	0
scalar GTITM_TS_IPv4Network.backboneRouter[38].ppp[1].queue 	"packets received by queue" 	89
scalar GTITM_TS_IPv4Network.backboneRouter[38].ppp[1].queue 	"packets dropped by queue" 	0
scalar GTITM_TS_IPv4Network.backboneRouter[38].ppp[2].queue 	"packets received by queue" 	22
scalar GTITM_TS_IPv4Network.backboneRouter[38].ppp[2].queue 	"packets dropped by queue" 	0
scalar GTITM_TS_IPv4Network.backboneRouter[38].ppp[3].queue 	"packets received by queue" 	0
scalar GTITM_TS_IPv4Network.backboneRouter[38].ppp[3].queue 	"packets dropped by queue" 	0
scalar GTITM_TS_IPv4Network.backboneRouter[38].ppp[4].queue 	"packets received by queue" 	0
scalar GTITM_TS_IPv4Network.backboneRouter[38].ppp[4].queue 	"packets dropped by queue" 	0
scalar GTITM_TS_IPv4Network.backboneRouter[38].ppp[5].queue 	"packets received by queue" 	0
scalar GTITM_TS_IPv4Network.backboneRouter[38].ppp[5].queue 	"packets dropped by queue" 	0
scalar GTITM_TS_IPv4Network.backboneRouter[38].ppp[6].queue 	"packets received by queue" 	2658
scalar GTITM_TS_IPv4Network.backboneRouter[38].ppp[6].queue 	"packets dropped by queue" 	0
scalar GTITM_TS_IPv4Network.backboneRouter[39].networkLayer.arp 	"ARP requests sent" 	0
scalar GTITM_TS_IPv4Network.backboneRouter[39].networkLayer.arp 	"ARP replies sent" 	0
scalar GTITM_TS_IPv4Network.backboneRouter[39].networkLayer.arp 	"ARP resolutions" 	0
scalar GTITM_TS_IPv4Network.backboneRouter[39].networkLayer.arp 	"failed ARP resolutions" 	0
scalar GTITM_TS_IPv4Network.backboneRouter[39].ppp[0].queue 	"packets received by queue" 	7788
scalar GTITM_TS_IPv4Network.backboneRouter[39].ppp[0].queue 	"packets dropped by queue" 	0
scalar GTITM_TS_IPv4Network.backboneRouter[39].ppp[1].queue 	"packets received by queue" 	5063
scalar GTITM_TS_IPv4Network.backboneRouter[39].ppp[1].queue 	"packets dropped by queue" 	0
scalar GTITM_TS_IPv4Network.backboneRouter[39].ppp[2].queue 	"packets received by queue" 	3884
scalar GTITM_TS_IPv4Network.backboneRouter[39].ppp[2].queue 	"packets dropped by queue" 	0
scalar GTITM_TS_IPv4Network.backboneRouter[39].ppp[3].queue 	"packets received by queue" 	1098
scalar GTITM_TS_IPv4Network.backboneRouter[39].ppp[3].queue 	"packets dropped by queue" 	0
scalar GTITM_TS_IPv4Network.backboneRouter[39].ppp[4].queue 	"packets received by queue" 	1906
scalar GTITM_TS_IPv4Network.backboneRouter[39].ppp[4].queue 	"packets dropped by queue" 	0
scalar GTITM_TS_IPv4Network.backboneRouter[39].ppp[5].queue 	"packets received by queue" 	5945
scalar GTITM_TS_IPv4Network.backboneRouter[39].ppp[5].queue 	"packets dropped by queue" 	0
scalar GTITM_TS_IPv4Network.backboneRouter[39].ppp[6].queue 	"packets received by queue" 	7459
scalar GTITM_TS_IPv4Network.backboneRouter[39].ppp[6].queue 	"packets dropped by queue" 	0
scalar GTITM_TS_IPv4Network.backboneRouter[39].ppp[7].queue 	"packets received by queue" 	6800
scalar GTITM_TS_IPv4Network.backboneRouter[39].ppp[7].queue 	"packets dropped by queue" 	0
scalar GTITM_TS_IPv4Network.backboneRouter[40].networkLayer.arp 	"ARP requests sent" 	0
scalar GTITM_TS_IPv4Network.backboneRouter[40].networkLayer.arp 	"ARP replies sent" 	0
scalar GTITM_TS_IPv4Network.backboneRouter[40].networkLayer.arp 	"ARP resolutions" 	0
scalar GTITM_TS_IPv4Network.backboneRouter[40].networkLayer.arp 	"failed ARP resolutions" 	0
scalar GTITM_TS_IPv4Network.backboneRouter[40].ppp[0].queue 	"packets received by queue" 	1310
scalar GTITM_TS_IPv4Network.backboneRouter[40].ppp[0].queue 	"packets dropped by queue" 	0
scalar GTITM_TS_IPv4Network.backboneRouter[40].ppp[1].queue 	"packets received by queue" 	1480
scalar GTITM_TS_IPv4Network.backboneRouter[40].ppp[1].queue 	"packets dropped by queue" 	0
scalar GTITM_TS_IPv4Network.backboneRouter[40].ppp[2].queue 	"packets received by queue" 	1776
scalar GTITM_TS_IPv4Network.backboneRouter[40].ppp[2].queue 	"packets dropped by queue" 	0
scalar GTITM_TS_IPv4Network.backboneRouter[40].ppp[3].queue 	"packets received by queue" 	2507
scalar GTITM_TS_IPv4Network.backboneRouter[40].ppp[3].queue 	"packets dropped by queue" 	0
scalar GTITM_TS_IPv4Network.backboneRouter[40].ppp[4].queue 	"packets received by queue" 	6573
scalar GTITM_TS_IPv4Network.backboneRouter[40].ppp[4].queue 	"packets dropped by queue" 	0
scalar GTITM_TS_IPv4Network.backboneRouter[40].ppp[5].queue 	"packets received by queue" 	965
scalar GTITM_TS_IPv4Network.backboneRouter[40].ppp[5].queue 	"packets dropped by queue" 	0
scalar GTITM_TS_IPv4Network.backboneRouter[41].networkLayer.arp 	"ARP requests sent" 	0
scalar GTITM_TS_IPv4Network.backboneRouter[41].networkLayer.arp 	"ARP replies sent" 	0
scalar GTITM_TS_IPv4Network.backboneRouter[41].networkLayer.arp 	"ARP resolutions" 	0
scalar GTITM_TS_IPv4Network.backboneRouter[41].networkLayer.arp 	"failed ARP resolutions" 	0
scalar GTITM_TS_IPv4Network.backboneRouter[41].ppp[0].queue 	"packets received by queue" 	2313
scalar GTITM_TS_IPv4Network.backboneRouter[41].ppp[0].queue 	"packets dropped by queue" 	0
scalar GTITM_TS_IPv4Network.backboneRouter[41].ppp[1].queue 	"packets received by queue" 	839
scalar GTITM_TS_IPv4Network.backboneRouter[41].ppp[1].queue 	"packets dropped by queue" 	0
scalar GTITM_TS_IPv4Network.backboneRouter[41].ppp[2].queue 	"packets received by queue" 	332
scalar GTITM_TS_IPv4Network.backboneRouter[41].ppp[2].queue 	"packets dropped by queue" 	0
scalar GTITM_TS_IPv4Network.backboneRouter[41].ppp[3].queue 	"packets received by queue" 	920
scalar GTITM_TS_IPv4Network.backboneRouter[41].ppp[3].queue 	"packets dropped by queue" 	0
scalar GTITM_TS_IPv4Network.backboneRouter[41].ppp[4].queue 	"packets received by queue" 	1773
scalar GTITM_TS_IPv4Network.backboneRouter[41].ppp[4].queue 	"packets dropped by queue" 	0
scalar GTITM_TS_IPv4Network.backboneRouter[41].ppp[5].queue 	"packets received by queue" 	0
scalar GTITM_TS_IPv4Network.backboneRouter[41].ppp[5].queue 	"packets dropped by queue" 	0
scalar GTITM_TS_IPv4Network.backboneRouter[41].ppp[6].queue 	"packets received by queue" 	1436
scalar GTITM_TS_IPv4Network.backboneRouter[41].ppp[6].queue 	"packets dropped by queue" 	0
scalar GTITM_TS_IPv4Network.backboneRouter[41].ppp[7].queue 	"packets received by queue" 	1015
scalar GTITM_TS_IPv4Network.backboneRouter[41].ppp[7].queue 	"packets dropped by queue" 	0
scalar GTITM_TS_IPv4Network.backboneRouter[41].ppp[8].queue 	"packets received by queue" 	1729
scalar GTITM_TS_IPv4Network.backboneRouter[41].ppp[8].queue 	"packets dropped by queue" 	0
scalar GTITM_TS_IPv4Network.backboneRouter[42].networkLayer.arp 	"ARP requests sent" 	0
scalar GTITM_TS_IPv4Network.backboneRouter[42].networkLayer.arp 	"ARP replies sent" 	0
scalar GTITM_TS_IPv4Network.backboneRouter[42].networkLayer.arp 	"ARP resolutions" 	0
scalar GTITM_TS_IPv4Network.backboneRouter[42].networkLayer.arp 	"failed ARP resolutions" 	0
scalar GTITM_TS_IPv4Network.backboneRouter[42].ppp[0].queue 	"packets received by queue" 	3588
scalar GTITM_TS_IPv4Network.backboneRouter[42].ppp[0].queue 	"packets dropped by queue" 	0
scalar GTITM_TS_IPv4Network.backboneRouter[42].ppp[1].queue 	"packets received by queue" 	6825
scalar GTITM_TS_IPv4Network.backboneRouter[42].ppp[1].queue 	"packets dropped by queue" 	0
scalar GTITM_TS_IPv4Network.backboneRouter[42].ppp[2].queue 	"packets received by queue" 	5724
scalar GTITM_TS_IPv4Network.backboneRouter[42].ppp[2].queue 	"packets dropped by queue" 	0
scalar GTITM_TS_IPv4Network.backboneRouter[42].ppp[3].queue 	"packets received by queue" 	174
scalar GTITM_TS_IPv4Network.backboneRouter[42].ppp[3].queue 	"packets dropped by queue" 	0
scalar GTITM_TS_IPv4Network.backboneRouter[42].ppp[4].queue 	"packets received by queue" 	514
scalar GTITM_TS_IPv4Network.backboneRouter[42].ppp[4].queue 	"packets dropped by queue" 	0
scalar GTITM_TS_IPv4Network.backboneRouter[42].ppp[5].queue 	"packets received by queue" 	0
scalar GTITM_TS_IPv4Network.backboneRouter[42].ppp[5].queue 	"packets dropped by queue" 	0
scalar GTITM_TS_IPv4Network.backboneRouter[42].ppp[6].queue 	"packets received by queue" 	3236
scalar GTITM_TS_IPv4Network.backboneRouter[42].ppp[6].queue 	"packets dropped by queue" 	0
scalar GTITM_TS_IPv4Network.backboneRouter[43].networkLayer.arp 	"ARP requests sent" 	0
scalar GTITM_TS_IPv4Network.backboneRouter[43].networkLayer.arp 	"ARP replies sent" 	0
scalar GTITM_TS_IPv4Network.backboneRouter[43].networkLayer.arp 	"ARP resolutions" 	0
scalar GTITM_TS_IPv4Network.backboneRouter[43].networkLayer.arp 	"failed ARP resolutions" 	0
scalar GTITM_TS_IPv4Network.backboneRouter[43].ppp[0].queue 	"packets received by queue" 	10201
scalar GTITM_TS_IPv4Network.backboneRouter[43].ppp[0].queue 	"packets dropped by queue" 	0
scalar GTITM_TS_IPv4Network.backboneRouter[43].ppp[1].queue 	"packets received by queue" 	1754
scalar GTITM_TS_IPv4Network.backboneRouter[43].ppp[1].queue 	"packets dropped by queue" 	0
scalar GTITM_TS_IPv4Network.backboneRouter[43].ppp[2].queue 	"packets received by queue" 	95
scalar GTITM_TS_IPv4Network.backboneRouter[43].ppp[2].queue 	"packets dropped by queue" 	0
scalar GTITM_TS_IPv4Network.backboneRouter[43].ppp[3].queue 	"packets received by queue" 	6008
scalar GTITM_TS_IPv4Network.backboneRouter[43].ppp[3].queue 	"packets dropped by queue" 	0
scalar GTITM_TS_IPv4Network.backboneRouter[43].ppp[4].queue 	"packets received by queue" 	1548
scalar GTITM_TS_IPv4Network.backboneRouter[43].ppp[4].queue 	"packets dropped by queue" 	0
scalar GTITM_TS_IPv4Network.backboneRouter[43].ppp[5].queue 	"packets received by queue" 	1804
scalar GTITM_TS_IPv4Network.backboneRouter[43].ppp[5].queue 	"packets dropped by queue" 	0
scalar GTITM_TS_IPv4Network.backboneRouter[43].ppp[6].queue 	"packets received by queue" 	4922
scalar GTITM_TS_IPv4Network.backboneRouter[43].ppp[6].queue 	"packets dropped by queue" 	0
scalar GTITM_TS_IPv4Network.backboneRouter[43].ppp[7].queue 	"packets received by queue" 	1567
scalar GTITM_TS_IPv4Network.backboneRouter[43].ppp[7].queue 	"packets dropped by queue" 	0
scalar GTITM_TS_IPv4Network.backboneRouter[44].networkLayer.arp 	"ARP requests sent" 	0
scalar GTITM_TS_IPv4Network.backboneRouter[44].networkLayer.arp 	"ARP replies sent" 	0
scalar GTITM_TS_IPv4Network.backboneRouter[44].networkLayer.arp 	"ARP resolutions" 	0
scalar GTITM_TS_IPv4Network.backboneRouter[44].networkLayer.arp 	"failed ARP resolutions" 	0
scalar GTITM_TS_IPv4Network.backboneRouter[44].ppp[0].queue 	"packets received by queue" 	2298
scalar GTITM_TS_IPv4Network.backboneRouter[44].ppp[0].queue 	"packets dropped by queue" 	0
scalar GTITM_TS_IPv4Network.backboneRouter[44].ppp[1].queue 	"packets received by queue" 	2653
scalar GTITM_TS_IPv4Network.backboneRouter[44].ppp[1].queue 	"packets dropped by queue" 	0
scalar GTITM_TS_IPv4Network.backboneRouter[44].ppp[2].queue 	"packets received by queue" 	129
scalar GTITM_TS_IPv4Network.backboneRouter[44].ppp[2].queue 	"packets dropped by queue" 	0
scalar GTITM_TS_IPv4Network.backboneRouter[44].ppp[3].queue 	"packets received by queue" 	3729
scalar GTITM_TS_IPv4Network.backboneRouter[44].ppp[3].queue 	"packets dropped by queue" 	0
scalar GTITM_TS_IPv4Network.backboneRouter[44].ppp[4].queue 	"packets received by queue" 	1604
scalar GTITM_TS_IPv4Network.backboneRouter[44].ppp[4].queue 	"packets dropped by queue" 	0
scalar GTITM_TS_IPv4Network.backboneRouter[44].ppp[5].queue 	"packets received by queue" 	3448
scalar GTITM_TS_IPv4Network.backboneRouter[44].ppp[5].queue 	"packets dropped by queue" 	0
scalar GTITM_TS_IPv4Network.backboneRouter[44].ppp[6].queue 	"packets received by queue" 	1710
scalar GTITM_TS_IPv4Network.backboneRouter[44].ppp[6].queue 	"packets dropped by queue" 	0
scalar GTITM_TS_IPv4Network.backboneRouter[45].networkLayer.arp 	"ARP requests sent" 	0
scalar GTITM_TS_IPv4Network.backboneRouter[45].networkLayer.arp 	"ARP replies sent" 	0
scalar GTITM_TS_IPv4Network.backboneRouter[45].networkLayer.arp 	"ARP resolutions" 	0
scalar GTITM_TS_IPv4Network.backboneRouter[45].networkLayer.arp 	"failed ARP resolutions" 	0
scalar GTITM_TS_IPv4Network.backboneRouter[45].ppp[0].queue 	"packets received by queue" 	2604
scalar GTITM_TS_IPv4Network.backboneRouter[45].ppp[0].queue 	"packets dropped by queue" 	0
scalar GTITM_TS_IPv4Network.backboneRouter[45].ppp[1].queue 	"packets received by queue" 	1574
scalar GTITM_TS_IPv4Network.backboneRouter[45].ppp[1].queue 	"packets dropped by queue" 	0
scalar GTITM_TS_IPv4Network.backboneRouter[45].ppp[2].queue 	"packets received by queue" 	480
scalar GTITM_TS_IPv4Network.backboneRouter[45].ppp[2].queue 	"packets dropped by queue" 	0
scalar GTITM_TS_IPv4Network.backboneRouter[45].ppp[3].queue 	"packets received by queue" 	0
scalar GTITM_TS_IPv4Network.backboneRouter[45].ppp[3].queue 	"packets dropped by queue" 	0
scalar GTITM_TS_IPv4Network.backboneRouter[45].ppp[4].queue 	"packets received by queue" 	363
scalar GTITM_TS_IPv4Network.backboneRouter[45].ppp[4].queue 	"packets dropped by queue" 	0
scalar GTITM_TS_IPv4Network.backboneRouter[45].ppp[5].queue 	"packets received by queue" 	1947
scalar GTITM_TS_IPv4Network.backboneRouter[45].ppp[5].queue 	"packets dropped by queue" 	0
scalar GTITM_TS_IPv4Network.backboneRouter[46].networkLayer.arp 	"ARP requests sent" 	0
scalar GTITM_TS_IPv4Network.backboneRouter[46].networkLayer.arp 	"ARP replies sent" 	0
scalar GTITM_TS_IPv4Network.backboneRouter[46].networkLayer.arp 	"ARP resolutions" 	0
scalar GTITM_TS_IPv4Network.backboneRouter[46].networkLayer.arp 	"failed ARP resolutions" 	0
scalar GTITM_TS_IPv4Network.backboneRouter[46].ppp[0].queue 	"packets received by queue" 	6813
scalar GTITM_TS_IPv4Network.backboneRouter[46].ppp[0].queue 	"packets dropped by queue" 	0
scalar GTITM_TS_IPv4Network.backboneRouter[46].ppp[1].queue 	"packets received by queue" 	7905
scalar GTITM_TS_IPv4Network.backboneRouter[46].ppp[1].queue 	"packets dropped by queue" 	0
scalar GTITM_TS_IPv4Network.backboneRouter[46].ppp[2].queue 	"packets received by queue" 	2687
scalar GTITM_TS_IPv4Network.backboneRouter[46].ppp[2].queue 	"packets dropped by queue" 	0
scalar GTITM_TS_IPv4Network.backboneRouter[46].ppp[3].queue 	"packets received by queue" 	11127
scalar GTITM_TS_IPv4Network.backboneRouter[46].ppp[3].queue 	"packets dropped by queue" 	0
scalar GTITM_TS_IPv4Network.backboneRouter[46].ppp[4].queue 	"packets received by queue" 	4769
scalar GTITM_TS_IPv4Network.backboneRouter[46].ppp[4].queue 	"packets dropped by queue" 	0
scalar GTITM_TS_IPv4Network.backboneRouter[46].ppp[5].queue 	"packets received by queue" 	360
scalar GTITM_TS_IPv4Network.backboneRouter[46].ppp[5].queue 	"packets dropped by queue" 	0
scalar GTITM_TS_IPv4Network.backboneRouter[46].ppp[6].queue 	"packets received by queue" 	1829
scalar GTITM_TS_IPv4Network.backboneRouter[46].ppp[6].queue 	"packets dropped by queue" 	0
scalar GTITM_TS_IPv4Network.backboneRouter[46].ppp[7].queue 	"packets received by queue" 	3939
scalar GTITM_TS_IPv4Network.backboneRouter[46].ppp[7].queue 	"packets dropped by queue" 	0
scalar GTITM_TS_IPv4Network.backboneRouter[46].ppp[8].queue 	"packets received by queue" 	1640
scalar GTITM_TS_IPv4Network.backboneRouter[46].ppp[8].queue 	"packets dropped by queue" 	0
[...]
scalar GTITM_TS_IPv4Network.overlayTerminal[112].networkLayer.arp 	"ARP resolutions" 	0
scalar GTITM_TS_IPv4Network.overlayTerminal[112].networkLayer.arp 	"failed ARP resolutions" 	0
scalar GTITM_TS_IPv4Network.overlayTerminal[112].ppp[0].queue 	"packets received by queue" 	399
scalar GTITM_TS_IPv4Network.overlayTerminal[112].ppp[0].queue 	"packets dropped by queue" 	0
scalar GTITM_TS_IPv4Network.overlayTerminal[113].networkLayer.arp 	"ARP requests sent" 	0
scalar GTITM_TS_IPv4Network.overlayTerminal[113].networkLayer.arp 	"ARP replies sent" 	0
scalar GTITM_TS_IPv4Network.overlayTerminal[113].networkLayer.arp 	"ARP resolutions" 	0
scalar GTITM_TS_IPv4Network.overlayTerminal[113].networkLayer.arp 	"failed ARP resolutions" 	0
scalar GTITM_TS_IPv4Network.overlayTerminal[113].ppp[0].queue 	"packets received by queue" 	439
scalar GTITM_TS_IPv4Network.overlayTerminal[113].ppp[0].queue 	"packets dropped by queue" 	0
scalar GTITM_TS_IPv4Network.overlayTerminal[114].networkLayer.arp 	"ARP requests sent" 	0
scalar GTITM_TS_IPv4Network.overlayTerminal[114].networkLayer.arp 	"ARP replies sent" 	0
scalar GTITM_TS_IPv4Network.overlayTerminal[114].networkLayer.arp 	"ARP resolutions" 	0
scalar GTITM_TS_IPv4Network.overlayTerminal[114].networkLayer.arp 	"failed ARP resolutions" 	0
scalar GTITM_TS_IPv4Network.overlayTerminal[114].ppp[0].queue 	"packets received by queue" 	388
scalar GTITM_TS_IPv4Network.overlayTerminal[114].ppp[0].queue 	"packets dropped by queue" 	0
scalar GTITM_TS_IPv4Network.overlayTerminal[115].networkLayer.arp 	"ARP requests sent" 	0
scalar GTITM_TS_IPv4Network.overlayTerminal[115].networkLayer.arp 	"ARP replies sent" 	0
scalar GTITM_TS_IPv4Network.overlayTerminal[115].networkLayer.arp 	"ARP resolutions" 	0
scalar GTITM_TS_IPv4Network.overlayTerminal[115].networkLayer.arp 	"failed ARP resolutions" 	0
scalar GTITM_TS_IPv4Network.overlayTerminal[115].ppp[0].queue 	"packets received by queue" 	5682
scalar GTITM_TS_IPv4Network.overlayTerminal[115].ppp[0].queue 	"packets dropped by queue" 	0
scalar GTITM_TS_IPv4Network.overlayTerminal[116].networkLayer.arp 	"ARP requests sent" 	0
scalar GTITM_TS_IPv4Network.overlayTerminal[116].networkLayer.arp 	"ARP replies sent" 	0
scalar GTITM_TS_IPv4Network.overlayTerminal[116].networkLayer.arp 	"ARP resolutions" 	0
scalar GTITM_TS_IPv4Network.overlayTerminal[116].networkLayer.arp 	"failed ARP resolutions" 	0
scalar GTITM_TS_IPv4Network.overlayTerminal[116].ppp[0].queue 	"packets received by queue" 	389
scalar GTITM_TS_IPv4Network.overlayTerminal[116].ppp[0].queue 	"packets dropped by queue" 	0
scalar GTITM_TS_IPv4Network.overlayTerminal[117].networkLayer.arp 	"ARP requests sent" 	0
scalar GTITM_TS_IPv4Network.overlayTerminal[117].networkLayer.arp 	"ARP replies sent" 	0
scalar GTITM_TS_IPv4Network.overlayTerminal[117].networkLayer.arp 	"ARP resolutions" 	0
scalar GTITM_TS_IPv4Network.overlayTerminal[117].networkLayer.arp 	"failed ARP resolutions" 	0
scalar GTITM_TS_IPv4Network.overlayTerminal[117].ppp[0].queue 	"packets received by queue" 	398
scalar GTITM_TS_IPv4Network.overlayTerminal[117].ppp[0].queue 	"packets dropped by queue" 	0
scalar GTITM_TS_IPv4Network.overlayTerminal[118].networkLayer.arp 	"ARP requests sent" 	0
scalar GTITM_TS_IPv4Network.overlayTerminal[118].networkLayer.arp 	"ARP replies sent" 	0
scalar GTITM_TS_IPv4Network.overlayTerminal[118].networkLayer.arp 	"ARP resolutions" 	0
scalar GTITM_TS_IPv4Network.overlayTerminal[118].networkLayer.arp 	"failed ARP resolutions" 	0
scalar GTITM_TS_IPv4Network.overlayTerminal[118].ppp[0].queue 	"packets received by queue" 	476
scalar GTITM_TS_IPv4Network.overlayTerminal[118].ppp[0].queue 	"packets dropped by queue" 	0
scalar GTITM_TS_IPv4Network.overlayTerminal[119].networkLayer.arp 	"ARP requests sent" 	0
scalar GTITM_TS_IPv4Network.overlayTerminal[119].networkLayer.arp 	"ARP replies sent" 	0
scalar GTITM_TS_IPv4Network.overlayTerminal[119].networkLayer.arp 	"ARP resolutions" 	0
scalar GTITM_TS_IPv4Network.overlayTerminal[119].networkLayer.arp 	"failed ARP resolutions" 	0
scalar GTITM_TS_IPv4Network.overlayTerminal[119].ppp[0].queue 	"packets received by queue" 	476
scalar GTITM_TS_IPv4Network.overlayTerminal[119].ppp[0].queue 	"packets dropped by queue" 	0
scalar GTITM_TS_IPv4Network.overlayTerminal[120].networkLayer.arp 	"ARP requests sent" 	0
scalar GTITM_TS_IPv4Network.overlayTerminal[120].networkLayer.arp 	"ARP replies sent" 	0
scalar GTITM_TS_IPv4Network.overlayTerminal[120].networkLayer.arp 	"ARP resolutions" 	0
scalar GTITM_TS_IPv4Network.overlayTerminal[120].networkLayer.arp 	"failed ARP resolutions" 	0
scalar GTITM_TS_IPv4Network.overlayTerminal[120].ppp[0].queue 	"packets received by queue" 	345
scalar GTITM_TS_IPv4Network.overlayTerminal[120].ppp[0].queue 	"packets dropped by queue" 	0
scalar GTITM_TS_IPv4Network.overlayTerminal[121].networkLayer.arp 	"ARP requests sent" 	0
scalar GTITM_TS_IPv4Network.overlayTerminal[121].networkLayer.arp 	"ARP replies sent" 	0
scalar GTITM_TS_IPv4Network.overlayTerminal[121].networkLayer.arp 	"ARP resolutions" 	0
scalar GTITM_TS_IPv4Network.overlayTerminal[121].networkLayer.arp 	"failed ARP resolutions" 	0
scalar GTITM_TS_IPv4Network.overlayTerminal[121].ppp[0].queue 	"packets received by queue" 	6258
scalar GTITM_TS_IPv4Network.overlayTerminal[121].ppp[0].queue 	"packets dropped by queue" 	0
scalar GTITM_TS_IPv4Network.overlayTerminal[122].networkLayer.arp 	"ARP requests sent" 	0
scalar GTITM_TS_IPv4Network.overlayTerminal[122].networkLayer.arp 	"ARP replies sent" 	0
scalar GTITM_TS_IPv4Network.overlayTerminal[122].networkLayer.arp 	"ARP resolutions" 	0
scalar GTITM_TS_IPv4Network.overlayTerminal[122].networkLayer.arp 	"failed ARP resolutions" 	0
scalar GTITM_TS_IPv4Network.overlayTerminal[122].ppp[0].queue 	"packets received by queue" 	491
scalar GTITM_TS_IPv4Network.overlayTerminal[122].ppp[0].queue 	"packets dropped by queue" 	0
scalar GTITM_TS_IPv4Network.overlayTerminal[123].networkLayer.arp 	"ARP requests sent" 	0
scalar GTITM_TS_IPv4Network.overlayTerminal[123].networkLayer.arp 	"ARP replies sent" 	0
scalar GTITM_TS_IPv4Network.overlayTerminal[123].networkLayer.arp 	"ARP resolutions" 	0
scalar GTITM_TS_IPv4Network.overlayTerminal[123].networkLayer.arp 	"failed ARP resolutions" 	0
scalar GTITM_TS_IPv4Network.overlayTerminal[123].ppp[0].queue 	"packets received by queue" 	448
scalar GTITM_TS_IPv4Network.overlayTerminal[123].ppp[0].queue 	"packets dropped by queue" 	0
scalar GTITM_TS_IPv4Network.overlayTerminal[124].networkLayer.arp 	"ARP requests sent" 	0
scalar GTITM_TS_IPv4Network.overlayTerminal[124].networkLayer.arp 	"ARP replies sent" 	0
scalar GTITM_TS_IPv4Network.overlayTerminal[124].networkLayer.arp 	"ARP resolutions" 	0
scalar GTITM_TS_IPv4Network.overlayTerminal[124].networkLayer.arp 	"failed ARP resolutions" 	0
scalar GTITM_TS_IPv4Network.overlayTerminal[124].ppp[0].queue 	"packets received by queue" 	464
scalar GTITM_TS_IPv4Network.overlayTerminal[124].ppp[0].queue 	"packets dropped by queue" 	0
scalar GTITM_TS_IPv4Network.overlayTerminal[125].networkLayer.arp 	"ARP requests sent" 	0
scalar GTITM_TS_IPv4Network.overlayTerminal[125].networkLayer.arp 	"ARP replies sent" 	0
scalar GTITM_TS_IPv4Network.overlayTerminal[125].networkLayer.arp 	"ARP resolutions" 	0
scalar GTITM_TS_IPv4Network.overlayTerminal[125].networkLayer.arp 	"failed ARP resolutions" 	0
scalar GTITM_TS_IPv4Network.overlayTerminal[125].ppp[0].queue 	"packets received by queue" 	464
scalar GTITM_TS_IPv4Network.overlayTerminal[125].ppp[0].queue 	"packets dropped by queue" 	0
scalar GTITM_TS_IPv4Network.overlayTerminal[126].networkLayer.arp 	"ARP requests sent" 	0
scalar GTITM_TS_IPv4Network.overlayTerminal[126].networkLayer.arp 	"ARP replies sent" 	0
scalar GTITM_TS_IPv4Network.overlayTerminal[126].networkLayer.arp 	"ARP resolutions" 	0
scalar GTITM_TS_IPv4Network.overlayTerminal[126].networkLayer.arp 	"failed ARP resolutions" 	0
scalar GTITM_TS_IPv4Network.overlayTerminal[126].ppp[0].queue 	"packets received by queue" 	438
scalar GTITM_TS_IPv4Network.overlayTerminal[126].ppp[0].queue 	"packets dropped by queue" 	0
scalar GTITM_TS_IPv4Network.overlayTerminal[127].networkLayer.arp 	"ARP requests sent" 	0
scalar GTITM_TS_IPv4Network.overlayTerminal[127].networkLayer.arp 	"ARP replies sent" 	0
scalar GTITM_TS_IPv4Network.overlayTerminal[127].networkLayer.arp 	"ARP resolutions" 	0
scalar GTITM_TS_IPv4Network.overlayTerminal[127].networkLayer.arp 	"failed ARP resolutions" 	0
scalar GTITM_TS_IPv4Network.overlayTerminal[127].ppp[0].queue 	"packets received by queue" 	405
scalar GTITM_TS_IPv4Network.overlayTerminal[127].ppp[0].queue 	"packets dropped by queue" 	0
scalar GTITM_TS_IPv4Network.globalObserver.globalStatistics 	"GlobalStatistics: Simulation Time" 	329.689185238
scalar GTITM_TS_IPv4Network.globalObserver.globalStatistics 	"BaseApp (bootstrapList): Received Bytes/s from Overlay.mean" 	0
scalar GTITM_TS_IPv4Network.globalObserver.globalStatistics 	"BaseApp (bootstrapList): Received Bytes/s from UDP.mean" 	0
scalar GTITM_TS_IPv4Network.globalObserver.globalStatistics 	"BaseApp (bootstrapList): Received Messages/s from Overlay.mean" 	0
scalar GTITM_TS_IPv4Network.globalObserver.globalStatistics 	"BaseApp (bootstrapList): Received Messages/s from UDP.mean" 	0
scalar GTITM_TS_IPv4Network.globalObserver.globalStatistics 	"BaseApp (bootstrapList): Sent Bytes/s to Overlay.mean" 	0
scalar GTITM_TS_IPv4Network.globalObserver.globalStatistics 	"BaseApp (bootstrapList): Sent Bytes/s to UDP.mean" 	0
scalar GTITM_TS_IPv4Network.globalObserver.globalStatistics 	"BaseApp (bootstrapList): Sent Messages/s to Overlay.mean" 	0
scalar GTITM_TS_IPv4Network.globalObserver.globalStatistics 	"BaseApp (bootstrapList): Sent Messages/s to UDP.mean" 	0
scalar GTITM_TS_IPv4Network.globalObserver.globalStatistics 	"BaseApp (neighborCache): Received Bytes/s from Overlay.mean" 	0
scalar GTITM_TS_IPv4Network.globalObserver.globalStatistics 	"BaseApp (neighborCache): Received Bytes/s from UDP.mean" 	0
scalar GTITM_TS_IPv4Network.globalObserver.globalStatistics 	"BaseApp (neighborCache): Received Messages/s from Overlay.mean" 	0
scalar GTITM_TS_IPv4Network.globalObserver.globalStatistics 	"BaseApp (neighborCache): Received Messages/s from UDP.mean" 	0
scalar GTITM_TS_IPv4Network.globalObserver.globalStatistics 	"BaseApp (neighborCache): Sent Bytes/s to Overlay.mean" 	0
scalar GTITM_TS_IPv4Network.globalObserver.globalStatistics 	"BaseApp (neighborCache): Sent Bytes/s to UDP.mean" 	0
scalar GTITM_TS_IPv4Network.globalObserver.globalStatistics 	"BaseApp (neighborCache): Sent Messages/s to Overlay.mean" 	0
scalar GTITM_TS_IPv4Network.globalObserver.globalStatistics 	"BaseApp (neighborCache): Sent Messages/s to UDP.mean" 	0
scalar GTITM_TS_IPv4Network.globalObserver.globalStatistics 	"BaseApp (nicetestapp): Received Bytes/s from Overlay.mean" 	13512.198157564
scalar GTITM_TS_IPv4Network.globalObserver.globalStatistics 	"BaseApp (nicetestapp): Received Bytes/s from UDP.mean" 	0
scalar GTITM_TS_IPv4Network.globalObserver.globalStatistics 	"BaseApp (nicetestapp): Received Messages/s from Overlay.mean" 	5.6389376592154
scalar GTITM_TS_IPv4Network.globalObserver.globalStatistics 	"BaseApp (nicetestapp): Received Messages/s from UDP.mean" 	0
scalar GTITM_TS_IPv4Network.globalObserver.globalStatistics 	"BaseApp (nicetestapp): Sent Bytes/s to Overlay.mean" 	0
scalar GTITM_TS_IPv4Network.globalObserver.globalStatistics 	"BaseApp (nicetestapp): Sent Bytes/s to UDP.mean" 	0
scalar GTITM_TS_IPv4Network.globalObserver.globalStatistics 	"BaseApp (nicetestapp): Sent Messages/s to Overlay.mean" 	0
scalar GTITM_TS_IPv4Network.globalObserver.globalStatistics 	"BaseApp (nicetestapp): Sent Messages/s to UDP.mean" 	0
scalar GTITM_TS_IPv4Network.globalObserver.globalStatistics 	"BaseApp (tier2): Received Bytes/s from Overlay.mean" 	0
scalar GTITM_TS_IPv4Network.globalObserver.globalStatistics 	"BaseApp (tier2): Received Bytes/s from UDP.mean" 	0
scalar GTITM_TS_IPv4Network.globalObserver.globalStatistics 	"BaseApp (tier2): Received Messages/s from Overlay.mean" 	0
scalar GTITM_TS_IPv4Network.globalObserver.globalStatistics 	"BaseApp (tier2): Received Messages/s from UDP.mean" 	0
scalar GTITM_TS_IPv4Network.globalObserver.globalStatistics 	"BaseApp (tier2): Sent Bytes/s to Overlay.mean" 	0
scalar GTITM_TS_IPv4Network.globalObserver.globalStatistics 	"BaseApp (tier2): Sent Bytes/s to UDP.mean" 	0
scalar GTITM_TS_IPv4Network.globalObserver.globalStatistics 	"BaseApp (tier2): Sent Messages/s to Overlay.mean" 	0
scalar GTITM_TS_IPv4Network.globalObserver.globalStatistics 	"BaseApp (tier2): Sent Messages/s to UDP.mean" 	0
scalar GTITM_TS_IPv4Network.globalObserver.globalStatistics 	"BaseApp (tier3): Received Bytes/s from Overlay.mean" 	0
scalar GTITM_TS_IPv4Network.globalObserver.globalStatistics 	"BaseApp (tier3): Received Bytes/s from UDP.mean" 	0
scalar GTITM_TS_IPv4Network.globalObserver.globalStatistics 	"BaseApp (tier3): Received Messages/s from Overlay.mean" 	0
scalar GTITM_TS_IPv4Network.globalObserver.globalStatistics 	"BaseApp (tier3): Received Messages/s from UDP.mean" 	0
scalar GTITM_TS_IPv4Network.globalObserver.globalStatistics 	"BaseApp (tier3): Sent Bytes/s to Overlay.mean" 	0
scalar GTITM_TS_IPv4Network.globalObserver.globalStatistics 	"BaseApp (tier3): Sent Bytes/s to UDP.mean" 	0
scalar GTITM_TS_IPv4Network.globalObserver.globalStatistics 	"BaseApp (tier3): Sent Messages/s to Overlay.mean" 	0
scalar GTITM_TS_IPv4Network.globalObserver.globalStatistics 	"BaseApp (tier3): Sent Messages/s to UDP.mean" 	0
scalar GTITM_TS_IPv4Network.globalObserver.globalStatistics 	"BaseOverlay: Dropped Bytes/s.mean" 	0
scalar GTITM_TS_IPv4Network.globalObserver.globalStatistics 	"BaseOverlay: Dropped Messages/s.mean" 	7.5687390564345e-05
scalar GTITM_TS_IPv4Network.globalObserver.globalStatistics 	"BaseOverlay: Forwarded App Data Bytes/s.mean" 	0
scalar GTITM_TS_IPv4Network.globalObserver.globalStatistics 	"BaseOverlay: Forwarded App Data Messages/s.mean" 	0
scalar GTITM_TS_IPv4Network.globalObserver.globalStatistics 	"BaseOverlay: Forwarded App Lookup Bytes/s.mean" 	0
scalar GTITM_TS_IPv4Network.globalObserver.globalStatistics 	"BaseOverlay: Forwarded App Lookup Messages/s.mean" 	0
scalar GTITM_TS_IPv4Network.globalObserver.globalStatistics 	"BaseOverlay: Forwarded Maintenance Bytes/s.mean" 	0
scalar GTITM_TS_IPv4Network.globalObserver.globalStatistics 	"BaseOverlay: Forwarded Maintenance Messages/s.mean" 	0
scalar GTITM_TS_IPv4Network.globalObserver.globalStatistics 	"BaseOverlay: Forwarded Total Bytes/s.mean" 	0
scalar GTITM_TS_IPv4Network.globalObserver.globalStatistics 	"BaseOverlay: Forwarded Total Messages/s.mean" 	0
scalar GTITM_TS_IPv4Network.globalObserver.globalStatistics 	"BaseOverlay: Join Retries.mean" 	1
scalar GTITM_TS_IPv4Network.globalObserver.globalStatistics 	"BaseOverlay: Measured Session Time.mean" 	269.0007023913
scalar GTITM_TS_IPv4Network.globalObserver.globalStatistics 	"BaseOverlay: Received App Data Bytes/s.mean" 	0
scalar GTITM_TS_IPv4Network.globalObserver.globalStatistics 	"BaseOverlay: Received App Data Messages/s.mean" 	0
scalar GTITM_TS_IPv4Network.globalObserver.globalStatistics 	"BaseOverlay: Received App Lookup Bytes/s.mean" 	0
scalar GTITM_TS_IPv4Network.globalObserver.globalStatistics 	"BaseOverlay: Received App Lookup Messages/s.mean" 	0
scalar GTITM_TS_IPv4Network.globalObserver.globalStatistics 	"BaseOverlay: Received Maintenance Bytes/s.mean" 	13897.407542406
scalar GTITM_TS_IPv4Network.globalObserver.globalStatistics 	"BaseOverlay: Received Maintenance Messages/s.mean" 	8.6170851031412
scalar GTITM_TS_IPv4Network.globalObserver.globalStatistics 	"BaseOverlay: Received Total Bytes/s.mean" 	13897.407542406
scalar GTITM_TS_IPv4Network.globalObserver.globalStatistics 	"BaseOverlay: Received Total Messages/s.mean" 	8.6170851031412
scalar GTITM_TS_IPv4Network.globalObserver.globalStatistics 	"BaseOverlay: Sent App Data Bytes/s.mean" 	0
scalar GTITM_TS_IPv4Network.globalObserver.globalStatistics 	"BaseOverlay: Sent App Data Messages/s.mean" 	0
scalar GTITM_TS_IPv4Network.globalObserver.globalStatistics 	"BaseOverlay: Sent App Lookup Bytes/s.mean" 	0
scalar GTITM_TS_IPv4Network.globalObserver.globalStatistics 	"BaseOverlay: Sent App Lookup Messages/s.mean" 	0
scalar GTITM_TS_IPv4Network.globalObserver.globalStatistics 	"BaseOverlay: Sent FailedNode Bytes/s.mean" 	0
scalar GTITM_TS_IPv4Network.globalObserver.globalStatistics 	"BaseOverlay: Sent FailedNode Messages/s.mean" 	0
scalar GTITM_TS_IPv4Network.globalObserver.globalStatistics 	"BaseOverlay: Sent FailedNodeResponse Bytes/s.mean" 	0
scalar GTITM_TS_IPv4Network.globalObserver.globalStatistics 	"BaseOverlay: Sent FailedNodeResponse Messages/s.mean" 	0
scalar GTITM_TS_IPv4Network.globalObserver.globalStatistics 	"BaseOverlay: Sent FindNode Bytes/s.mean" 	0
scalar GTITM_TS_IPv4Network.globalObserver.globalStatistics 	"BaseOverlay: Sent FindNode Messages/s.mean" 	0
scalar GTITM_TS_IPv4Network.globalObserver.globalStatistics 	"BaseOverlay: Sent FindNodeResponse Bytes/s.mean" 	0
scalar GTITM_TS_IPv4Network.globalObserver.globalStatistics 	"BaseOverlay: Sent FindNodeResponse Messages/s.mean" 	0
scalar GTITM_TS_IPv4Network.globalObserver.globalStatistics 	"BaseOverlay: Sent Maintenance Bytes/s.mean" 	13994.138071107
scalar GTITM_TS_IPv4Network.globalObserver.globalStatistics 	"BaseOverlay: Sent Maintenance Messages/s.mean" 	8.6735857401975
scalar GTITM_TS_IPv4Network.globalObserver.globalStatistics 	"BaseOverlay: Sent Ping Bytes/s.mean" 	0
scalar GTITM_TS_IPv4Network.globalObserver.globalStatistics 	"BaseOverlay: Sent Ping Messages/s.mean" 	0
scalar GTITM_TS_IPv4Network.globalObserver.globalStatistics 	"BaseOverlay: Sent Ping Response Bytes/s.mean" 	0
scalar GTITM_TS_IPv4Network.globalObserver.globalStatistics 	"BaseOverlay: Sent Ping Response Messages/s.mean" 	0
scalar GTITM_TS_IPv4Network.globalObserver.globalStatistics 	"BaseOverlay: Sent Total Bytes/s.mean" 	13994.138071107
scalar GTITM_TS_IPv4Network.globalObserver.globalStatistics 	"BaseOverlay: Sent Total Messages/s.mean" 	8.6735857401975
scalar GTITM_TS_IPv4Network.globalObserver.globalStatistics 	"Nice: Forwarded Multicast Bytes/s.mean" 	13692.644162659
scalar GTITM_TS_IPv4Network.globalObserver.globalStatistics 	"Nice: Forwarded Multicast Messages/s.mean" 	426604.72477723
scalar GTITM_TS_IPv4Network.globalObserver.globalStatistics 	"Nice: Inconsistencies/s.mean" 	0.00030274956225738
scalar GTITM_TS_IPv4Network.globalObserver.globalStatistics 	"Nice: Own Messages Received/s.mean" 	0.0044277123480142
scalar GTITM_TS_IPv4Network.globalObserver.globalStatistics 	"Nice: Peer Timeouts/s.mean" 	0.031410267084203
scalar GTITM_TS_IPv4Network.globalObserver.globalStatistics 	"Nice: Query Timeouts/s.mean" 	0
scalar GTITM_TS_IPv4Network.globalObserver.globalStatistics 	"Nice: Received JOIN Messages/s.mean" 	0.0010217797726187
scalar GTITM_TS_IPv4Network.globalObserver.globalStatistics 	"Nice: Received Multicast Bytes/s (subscribed groups only).mean" 	13769.709820605
scalar GTITM_TS_IPv4Network.globalObserver.globalStatistics 	"Nice: Received Multicast Messages/s (subscribed groups only).mean" 	5.6673961180676
scalar GTITM_TS_IPv4Network.globalObserver.globalStatistics 	"Nice: SC Minimum Compare/s.mean" 	0.0028431739950698
scalar GTITM_TS_IPv4Network.globalObserver.globalStatistics 	"Nice: Send Heartbeat Bytes/s.mean" 	109.968934497
scalar GTITM_TS_IPv4Network.globalObserver.globalStatistics 	"Nice: Send Heartbeat Messages/s.mean" 	1.1596065108363
scalar GTITM_TS_IPv4Network.globalObserver.globalStatistics 	"Nice: Structure Partitions/s.mean" 	0.00030274956225738
scalar GTITM_TS_IPv4Network.globalObserver.globalStatistics 	"Nice: Temporary Peer Timeouts/s.mean" 	0
scalar GTITM_TS_IPv4Network.globalObserver.globalStatistics 	"Vector: GlobalNodeList: Number of bootstrapped malicious nodes.mean" 	0
scalar GTITM_TS_IPv4Network.globalObserver.globalStatistics 	"Vector: GlobalNodeList: Number of nodes.mean" 	128
