version 2
run General-0-20100804-11:48:44-5502
attr configname General
attr datetime 20100804-11:48:44
attr experiment General
attr inifile world_simple.ini
attr iterationvars ""
attr iterationvars2 $repetition=0
attr measurement ""
attr network oversim.underlay.inetunderlay.InetUnderlayNetwork
attr processid 5502
attr repetition 0
attr replication #0
attr resultdir results
attr runnumber 0
attr seedset 1

scalar InetUnderlayNetwork.underlayConfigurator 	"Terminals added" 	127
scalar InetUnderlayNetwork.underlayConfigurator 	"Terminals removed" 	0
scalar InetUnderlayNetwork.backboneRouter[0].networkLayer.arp 	"ARP requests sent" 	0
scalar InetUnderlayNetwork.backboneRouter[0].networkLayer.arp 	"ARP replies sent" 	0
scalar InetUnderlayNetwork.backboneRouter[0].networkLayer.arp 	"ARP resolutions" 	0
scalar InetUnderlayNetwork.backboneRouter[0].networkLayer.arp 	"failed ARP resolutions" 	0
scalar InetUnderlayNetwork.backboneRouter[0].ppp[0].queue 	"packets received by queue" 	832
scalar InetUnderlayNetwork.backboneRouter[0].ppp[0].queue 	"packets dropped by queue" 	0
scalar InetUnderlayNetwork.backboneRouter[0].ppp[1].queue 	"packets received by queue" 	26364
scalar InetUnderlayNetwork.backboneRouter[0].ppp[1].queue 	"packets dropped by queue" 	0
scalar InetUnderlayNetwork.backboneRouter[0].ppp[2].queue 	"packets received by queue" 	82621
scalar InetUnderlayNetwork.backboneRouter[0].ppp[2].queue 	"packets dropped by queue" 	0
scalar InetUnderlayNetwork.outRouter[0].networkLayer.arp 	"ARP requests sent" 	0
scalar InetUnderlayNetwork.outRouter[0].networkLayer.arp 	"ARP replies sent" 	0
scalar InetUnderlayNetwork.outRouter[0].networkLayer.arp 	"ARP resolutions" 	0
scalar InetUnderlayNetwork.outRouter[0].networkLayer.arp 	"failed ARP resolutions" 	0
scalar InetUnderlayNetwork.outRouter[0].ppp[0].queue 	"packets received by queue" 	80
scalar InetUnderlayNetwork.outRouter[0].ppp[0].queue 	"packets dropped by queue" 	0
scalar InetUnderlayNetwork.accessRouter[0].networkLayer.arp 	"ARP requests sent" 	0
scalar InetUnderlayNetwork.accessRouter[0].networkLayer.arp 	"ARP replies sent" 	0
scalar InetUnderlayNetwork.accessRouter[0].networkLayer.arp 	"ARP resolutions" 	0
scalar InetUnderlayNetwork.accessRouter[0].networkLayer.arp 	"failed ARP resolutions" 	0
scalar InetUnderlayNetwork.accessRouter[0].ppp[0].queue 	"packets received by queue" 	83386
scalar InetUnderlayNetwork.accessRouter[0].ppp[0].queue 	"packets dropped by queue" 	0
scalar InetUnderlayNetwork.accessRouter[0].ppp[1].queue 	"packets received by queue" 	1619
scalar InetUnderlayNetwork.accessRouter[0].ppp[1].queue 	"packets dropped by queue" 	0
scalar InetUnderlayNetwork.accessRouter[0].ppp[2].queue 	"packets received by queue" 	1614
scalar InetUnderlayNetwork.accessRouter[0].ppp[2].queue 	"packets dropped by queue" 	0
scalar InetUnderlayNetwork.accessRouter[0].ppp[3].queue 	"packets received by queue" 	1616
scalar InetUnderlayNetwork.accessRouter[0].ppp[3].queue 	"packets dropped by queue" 	0
scalar InetUnderlayNetwork.accessRouter[0].ppp[4].queue 	"packets received by queue" 	3292
scalar InetUnderlayNetwork.accessRouter[0].ppp[4].queue 	"packets dropped by queue" 	0
scalar InetUnderlayNetwork.accessRouter[0].ppp[5].queue 	"packets received by queue" 	1901
scalar InetUnderlayNetwork.accessRouter[0].ppp[5].queue 	"packets dropped by queue" 	0
scalar InetUnderlayNetwork.accessRouter[0].ppp[6].queue 	"packets received by queue" 	1859
scalar InetUnderlayNetwork.accessRouter[0].ppp[6].queue 	"packets dropped by queue" 	0
scalar InetUnderlayNetwork.accessRouter[0].ppp[7].queue 	"packets received by queue" 	1747
scalar InetUnderlayNetwork.accessRouter[0].ppp[7].queue 	"packets dropped by queue" 	0
scalar InetUnderlayNetwork.accessRouter[0].ppp[8].queue 	"packets received by queue" 	3827
scalar InetUnderlayNetwork.accessRouter[0].ppp[8].queue 	"packets dropped by queue" 	0
scalar InetUnderlayNetwork.accessRouter[0].ppp[9].queue 	"packets received by queue" 	1650
scalar InetUnderlayNetwork.accessRouter[0].ppp[9].queue 	"packets dropped by queue" 	0
scalar InetUnderlayNetwork.accessRouter[0].ppp[10].queue 	"packets received by queue" 	2867
scalar InetUnderlayNetwork.accessRouter[0].ppp[10].queue 	"packets dropped by queue" 	0
scalar InetUnderlayNetwork.accessRouter[0].ppp[11].queue 	"packets received by queue" 	3344
scalar InetUnderlayNetwork.accessRouter[0].ppp[11].queue 	"packets dropped by queue" 	0
scalar InetUnderlayNetwork.accessRouter[0].ppp[12].queue 	"packets received by queue" 	3365
scalar InetUnderlayNetwork.accessRouter[0].ppp[12].queue 	"packets dropped by queue" 	0
scalar InetUnderlayNetwork.accessRouter[0].ppp[13].queue 	"packets received by queue" 	2811
scalar InetUnderlayNetwork.accessRouter[0].ppp[13].queue 	"packets dropped by queue" 	0
scalar InetUnderlayNetwork.accessRouter[0].ppp[14].queue 	"packets received by queue" 	1726
scalar InetUnderlayNetwork.accessRouter[0].ppp[14].queue 	"packets dropped by queue" 	0
scalar InetUnderlayNetwork.accessRouter[0].ppp[15].queue 	"packets received by queue" 	1717
scalar InetUnderlayNetwork.accessRouter[0].ppp[15].queue 	"packets dropped by queue" 	0
scalar InetUnderlayNetwork.accessRouter[0].ppp[16].queue 	"packets received by queue" 	2718
scalar InetUnderlayNetwork.accessRouter[0].ppp[16].queue 	"packets dropped by queue" 	0
scalar InetUnderlayNetwork.accessRouter[0].ppp[17].queue 	"packets received by queue" 	1619
scalar InetUnderlayNetwork.accessRouter[0].ppp[17].queue 	"packets dropped by queue" 	0
scalar InetUnderlayNetwork.accessRouter[0].ppp[18].queue 	"packets received by queue" 	2655
scalar InetUnderlayNetwork.accessRouter[0].ppp[18].queue 	"packets dropped by queue" 	0
scalar InetUnderlayNetwork.accessRouter[0].ppp[19].queue 	"packets received by queue" 	1690
scalar InetUnderlayNetwork.accessRouter[0].ppp[19].queue 	"packets dropped by queue" 	0
scalar InetUnderlayNetwork.accessRouter[0].ppp[20].queue 	"packets received by queue" 	1679
scalar InetUnderlayNetwork.accessRouter[0].ppp[20].queue 	"packets dropped by queue" 	0
scalar InetUnderlayNetwork.accessRouter[0].ppp[21].queue 	"packets received by queue" 	3236
scalar InetUnderlayNetwork.accessRouter[0].ppp[21].queue 	"packets dropped by queue" 	0
scalar InetUnderlayNetwork.accessRouter[0].ppp[22].queue 	"packets received by queue" 	1496
scalar InetUnderlayNetwork.accessRouter[0].ppp[22].queue 	"packets dropped by queue" 	0
scalar InetUnderlayNetwork.accessRouter[0].ppp[23].queue 	"packets received by queue" 	1598
scalar InetUnderlayNetwork.accessRouter[0].ppp[23].queue 	"packets dropped by queue" 	0
scalar InetUnderlayNetwork.accessRouter[0].ppp[24].queue 	"packets received by queue" 	1598
scalar InetUnderlayNetwork.accessRouter[0].ppp[24].queue 	"packets dropped by queue" 	0
scalar InetUnderlayNetwork.accessRouter[0].ppp[25].queue 	"packets received by queue" 	1586
scalar InetUnderlayNetwork.accessRouter[0].ppp[25].queue 	"packets dropped by queue" 	0
scalar InetUnderlayNetwork.accessRouter[0].ppp[26].queue 	"packets received by queue" 	2594
scalar InetUnderlayNetwork.accessRouter[0].ppp[26].queue 	"packets dropped by queue" 	0
scalar InetUnderlayNetwork.accessRouter[0].ppp[27].queue 	"packets received by queue" 	1566
scalar InetUnderlayNetwork.accessRouter[0].ppp[27].queue 	"packets dropped by queue" 	0
scalar InetUnderlayNetwork.accessRouter[0].ppp[28].queue 	"packets received by queue" 	1566
scalar InetUnderlayNetwork.accessRouter[0].ppp[28].queue 	"packets dropped by queue" 	0
scalar InetUnderlayNetwork.accessRouter[0].ppp[29].queue 	"packets received by queue" 	2549
scalar InetUnderlayNetwork.accessRouter[0].ppp[29].queue 	"packets dropped by queue" 	0
scalar InetUnderlayNetwork.accessRouter[0].ppp[30].queue 	"packets received by queue" 	2512
scalar InetUnderlayNetwork.accessRouter[0].ppp[30].queue 	"packets dropped by queue" 	0
scalar InetUnderlayNetwork.accessRouter[0].ppp[31].queue 	"packets received by queue" 	2465
scalar InetUnderlayNetwork.accessRouter[0].ppp[31].queue 	"packets dropped by queue" 	0
scalar InetUnderlayNetwork.accessRouter[0].ppp[32].queue 	"packets received by queue" 	1468
scalar InetUnderlayNetwork.accessRouter[0].ppp[32].queue 	"packets dropped by queue" 	0
scalar InetUnderlayNetwork.accessRouter[0].ppp[33].queue 	"packets received by queue" 	1544
scalar InetUnderlayNetwork.accessRouter[0].ppp[33].queue 	"packets dropped by queue" 	0
scalar InetUnderlayNetwork.accessRouter[0].ppp[34].queue 	"packets received by queue" 	3051
scalar InetUnderlayNetwork.accessRouter[0].ppp[34].queue 	"packets dropped by queue" 	0
scalar InetUnderlayNetwork.accessRouter[0].ppp[35].queue 	"packets received by queue" 	1506
scalar InetUnderlayNetwork.accessRouter[0].ppp[35].queue 	"packets dropped by queue" 	0
scalar InetUnderlayNetwork.accessRouter[0].ppp[36].queue 	"packets received by queue" 	2583
scalar InetUnderlayNetwork.accessRouter[0].ppp[36].queue 	"packets dropped by queue" 	0
scalar InetUnderlayNetwork.accessRouter[0].ppp[37].queue 	"packets received by queue" 	1467
scalar InetUnderlayNetwork.accessRouter[0].ppp[37].queue 	"packets dropped by queue" 	0
scalar InetUnderlayNetwork.accessRouter[0].ppp[38].queue 	"packets received by queue" 	2320
scalar InetUnderlayNetwork.accessRouter[0].ppp[38].queue 	"packets dropped by queue" 	0
scalar InetUnderlayNetwork.accessRouter[0].ppp[39].queue 	"packets received by queue" 	1502
scalar InetUnderlayNetwork.accessRouter[0].ppp[39].queue 	"packets dropped by queue" 	0
scalar InetUnderlayNetwork.accessRouter[0].ppp[40].queue 	"packets received by queue" 	1502
scalar InetUnderlayNetwork.accessRouter[0].ppp[40].queue 	"packets dropped by queue" 	0
scalar InetUnderlayNetwork.accessRouter[0].ppp[41].queue 	"packets received by queue" 	1495
scalar InetUnderlayNetwork.accessRouter[0].ppp[41].queue 	"packets dropped by queue" 	0
scalar InetUnderlayNetwork.accessRouter[0].ppp[42].queue 	"packets received by queue" 	2253
scalar InetUnderlayNetwork.accessRouter[0].ppp[42].queue 	"packets dropped by queue" 	0
scalar InetUnderlayNetwork.accessRouter[0].ppp[43].queue 	"packets received by queue" 	2208
scalar InetUnderlayNetwork.accessRouter[0].ppp[43].queue 	"packets dropped by queue" 	0
scalar InetUnderlayNetwork.accessRouter[0].ppp[44].queue 	"packets received by queue" 	1443
scalar InetUnderlayNetwork.accessRouter[0].ppp[44].queue 	"packets dropped by queue" 	0
scalar InetUnderlayNetwork.accessRouter[0].ppp[45].queue 	"packets received by queue" 	1438
scalar InetUnderlayNetwork.accessRouter[0].ppp[45].queue 	"packets dropped by queue" 	0
scalar InetUnderlayNetwork.accessRouter[0].ppp[46].queue 	"packets received by queue" 	2329
scalar InetUnderlayNetwork.accessRouter[0].ppp[46].queue 	"packets dropped by queue" 	0
scalar InetUnderlayNetwork.accessRouter[0].ppp[47].queue 	"packets received by queue" 	1430
scalar InetUnderlayNetwork.accessRouter[0].ppp[47].queue 	"packets dropped by queue" 	0
scalar InetUnderlayNetwork.accessRouter[0].ppp[48].queue 	"packets received by queue" 	2267
scalar InetUnderlayNetwork.accessRouter[0].ppp[48].queue 	"packets dropped by queue" 	0
scalar InetUnderlayNetwork.accessRouter[0].ppp[49].queue 	"packets received by queue" 	1471
scalar InetUnderlayNetwork.accessRouter[0].ppp[49].queue 	"packets dropped by queue" 	0
scalar InetUnderlayNetwork.accessRouter[0].ppp[50].queue 	"packets received by queue" 	2221
scalar InetUnderlayNetwork.accessRouter[0].ppp[50].queue 	"packets dropped by queue" 	0
scalar InetUnderlayNetwork.accessRouter[0].ppp[51].queue 	"packets received by queue" 	1501
scalar InetUnderlayNetwork.accessRouter[0].ppp[51].queue 	"packets dropped by queue" 	0
scalar InetUnderlayNetwork.accessRouter[0].ppp[52].queue 	"packets received by queue" 	1501
scalar InetUnderlayNetwork.accessRouter[0].ppp[52].queue 	"packets dropped by queue" 	0
scalar InetUnderlayNetwork.accessRouter[0].ppp[53].queue 	"packets received by queue" 	1495
scalar InetUnderlayNetwork.accessRouter[0].ppp[53].queue 	"packets dropped by queue" 	0
scalar InetUnderlayNetwork.accessRouter[0].ppp[54].queue 	"packets received by queue" 	2164
scalar InetUnderlayNetwork.accessRouter[0].ppp[54].queue 	"packets dropped by queue" 	0
scalar InetUnderlayNetwork.accessRouter[0].ppp[55].queue 	"packets received by queue" 	1417
scalar InetUnderlayNetwork.accessRouter[0].ppp[55].queue 	"packets dropped by queue" 	0
scalar InetUnderlayNetwork.accessRouter[0].ppp[56].queue 	"packets received by queue" 	1417
scalar InetUnderlayNetwork.accessRouter[0].ppp[56].queue 	"packets dropped by queue" 	0
scalar InetUnderlayNetwork.accessRouter[0].ppp[57].queue 	"packets received by queue" 	1412
scalar InetUnderlayNetwork.accessRouter[0].ppp[57].queue 	"packets dropped by queue" 	0
scalar InetUnderlayNetwork.accessRouter[0].ppp[58].queue 	"packets received by queue" 	1520
scalar InetUnderlayNetwork.accessRouter[0].ppp[58].queue 	"packets dropped by queue" 	0
scalar InetUnderlayNetwork.accessRouter[0].ppp[59].queue 	"packets received by queue" 	1517
scalar InetUnderlayNetwork.accessRouter[0].ppp[59].queue 	"packets dropped by queue" 	0
scalar InetUnderlayNetwork.accessRouter[0].ppp[60].queue 	"packets received by queue" 	1511
scalar InetUnderlayNetwork.accessRouter[0].ppp[60].queue 	"packets dropped by queue" 	0
scalar InetUnderlayNetwork.accessRouter[0].ppp[61].queue 	"packets received by queue" 	1509
scalar InetUnderlayNetwork.accessRouter[0].ppp[61].queue 	"packets dropped by queue" 	0
scalar InetUnderlayNetwork.accessRouter[0].ppp[62].queue 	"packets received by queue" 	1510
scalar InetUnderlayNetwork.accessRouter[0].ppp[62].queue 	"packets dropped by queue" 	0
scalar InetUnderlayNetwork.accessRouter[0].ppp[63].queue 	"packets received by queue" 	1510
scalar InetUnderlayNetwork.accessRouter[0].ppp[63].queue 	"packets dropped by queue" 	0
scalar InetUnderlayNetwork.accessRouter[0].ppp[64].queue 	"packets received by queue" 	1498
scalar InetUnderlayNetwork.accessRouter[0].ppp[64].queue 	"packets dropped by queue" 	0
scalar InetUnderlayNetwork.accessRouter[1].networkLayer.arp 	"ARP requests sent" 	0
scalar InetUnderlayNetwork.accessRouter[1].networkLayer.arp 	"ARP replies sent" 	0
scalar InetUnderlayNetwork.accessRouter[1].networkLayer.arp 	"ARP resolutions" 	0
scalar InetUnderlayNetwork.accessRouter[1].networkLayer.arp 	"failed ARP resolutions" 	0
scalar InetUnderlayNetwork.accessRouter[1].ppp[0].queue 	"packets received by queue" 	26352
scalar InetUnderlayNetwork.accessRouter[1].ppp[0].queue 	"packets dropped by queue" 	0
scalar InetUnderlayNetwork.accessRouter[1].ppp[1].queue 	"packets received by queue" 	1902
scalar InetUnderlayNetwork.accessRouter[1].ppp[1].queue 	"packets dropped by queue" 	0
scalar InetUnderlayNetwork.accessRouter[1].ppp[2].queue 	"packets received by queue" 	2914
scalar InetUnderlayNetwork.accessRouter[1].ppp[2].queue 	"packets dropped by queue" 	0
scalar InetUnderlayNetwork.accessRouter[1].ppp[3].queue 	"packets received by queue" 	1609
scalar InetUnderlayNetwork.accessRouter[1].ppp[3].queue 	"packets dropped by queue" 	0
scalar InetUnderlayNetwork.accessRouter[1].ppp[4].queue 	"packets received by queue" 	1606
scalar InetUnderlayNetwork.accessRouter[1].ppp[4].queue 	"packets dropped by queue" 	0
scalar InetUnderlayNetwork.accessRouter[1].ppp[5].queue 	"packets received by queue" 	1603
scalar InetUnderlayNetwork.accessRouter[1].ppp[5].queue 	"packets dropped by queue" 	0
scalar InetUnderlayNetwork.accessRouter[1].ppp[6].queue 	"packets received by queue" 	1608
scalar InetUnderlayNetwork.accessRouter[1].ppp[6].queue 	"packets dropped by queue" 	0
scalar InetUnderlayNetwork.accessRouter[1].ppp[7].queue 	"packets received by queue" 	1603
scalar InetUnderlayNetwork.accessRouter[1].ppp[7].queue 	"packets dropped by queue" 	0
scalar InetUnderlayNetwork.accessRouter[1].ppp[8].queue 	"packets received by queue" 	1656
scalar InetUnderlayNetwork.accessRouter[1].ppp[8].queue 	"packets dropped by queue" 	0
scalar InetUnderlayNetwork.accessRouter[1].ppp[9].queue 	"packets received by queue" 	1656
scalar InetUnderlayNetwork.accessRouter[1].ppp[9].queue 	"packets dropped by queue" 	0
scalar InetUnderlayNetwork.accessRouter[1].ppp[10].queue 	"packets received by queue" 	1659
scalar InetUnderlayNetwork.accessRouter[1].ppp[10].queue 	"packets dropped by queue" 	0
scalar InetUnderlayNetwork.accessRouter[1].ppp[11].queue 	"packets received by queue" 	1605
scalar InetUnderlayNetwork.accessRouter[1].ppp[11].queue 	"packets dropped by queue" 	0
scalar InetUnderlayNetwork.accessRouter[1].ppp[12].queue 	"packets received by queue" 	1606
scalar InetUnderlayNetwork.accessRouter[1].ppp[12].queue 	"packets dropped by queue" 	0
scalar InetUnderlayNetwork.accessRouter[1].ppp[13].queue 	"packets received by queue" 	1584
scalar InetUnderlayNetwork.accessRouter[1].ppp[13].queue 	"packets dropped by queue" 	0
scalar InetUnderlayNetwork.accessRouter[1].ppp[14].queue 	"packets received by queue" 	1644
scalar InetUnderlayNetwork.accessRouter[1].ppp[14].queue 	"packets dropped by queue" 	0
scalar InetUnderlayNetwork.accessRouter[1].ppp[15].queue 	"packets received by queue" 	1596
scalar InetUnderlayNetwork.accessRouter[1].ppp[15].queue 	"packets dropped by queue" 	0
scalar InetUnderlayNetwork.accessRouter[1].ppp[16].queue 	"packets received by queue" 	1595
scalar InetUnderlayNetwork.accessRouter[1].ppp[16].queue 	"packets dropped by queue" 	0
scalar InetUnderlayNetwork.accessRouter[1].ppp[17].queue 	"packets received by queue" 	1585
scalar InetUnderlayNetwork.accessRouter[1].ppp[17].queue 	"packets dropped by queue" 	0
scalar InetUnderlayNetwork.accessRouter[1].ppp[18].queue 	"packets received by queue" 	1581
scalar InetUnderlayNetwork.accessRouter[1].ppp[18].queue 	"packets dropped by queue" 	0
scalar InetUnderlayNetwork.accessRouter[1].ppp[19].queue 	"packets received by queue" 	1538
scalar InetUnderlayNetwork.accessRouter[1].ppp[19].queue 	"packets dropped by queue" 	0
scalar InetUnderlayNetwork.accessRouter[1].ppp[20].queue 	"packets received by queue" 	1545
scalar InetUnderlayNetwork.accessRouter[1].ppp[20].queue 	"packets dropped by queue" 	0
scalar InetUnderlayNetwork.accessRouter[1].ppp[21].queue 	"packets received by queue" 	1637
scalar InetUnderlayNetwork.accessRouter[1].ppp[21].queue 	"packets dropped by queue" 	0
scalar InetUnderlayNetwork.accessRouter[1].ppp[22].queue 	"packets received by queue" 	1631
scalar InetUnderlayNetwork.accessRouter[1].ppp[22].queue 	"packets dropped by queue" 	0
scalar InetUnderlayNetwork.accessRouter[1].ppp[23].queue 	"packets received by queue" 	1619
scalar InetUnderlayNetwork.accessRouter[1].ppp[23].queue 	"packets dropped by queue" 	0
scalar InetUnderlayNetwork.accessRouter[1].ppp[24].queue 	"packets received by queue" 	1619
scalar InetUnderlayNetwork.accessRouter[1].ppp[24].queue 	"packets dropped by queue" 	0
scalar InetUnderlayNetwork.accessRouter[1].ppp[25].queue 	"packets received by queue" 	1619
scalar InetUnderlayNetwork.accessRouter[1].ppp[25].queue 	"packets dropped by queue" 	0
scalar InetUnderlayNetwork.accessRouter[1].ppp[26].queue 	"packets received by queue" 	1569
scalar InetUnderlayNetwork.accessRouter[1].ppp[26].queue 	"packets dropped by queue" 	0
scalar InetUnderlayNetwork.accessRouter[1].ppp[27].queue 	"packets received by queue" 	1569
scalar InetUnderlayNetwork.accessRouter[1].ppp[27].queue 	"packets dropped by queue" 	0
scalar InetUnderlayNetwork.accessRouter[1].ppp[28].queue 	"packets received by queue" 	1553
scalar InetUnderlayNetwork.accessRouter[1].ppp[28].queue 	"packets dropped by queue" 	0
scalar InetUnderlayNetwork.accessRouter[1].ppp[29].queue 	"packets received by queue" 	1552
scalar InetUnderlayNetwork.accessRouter[1].ppp[29].queue 	"packets dropped by queue" 	0
scalar InetUnderlayNetwork.accessRouter[1].ppp[30].queue 	"packets received by queue" 	1679
scalar InetUnderlayNetwork.accessRouter[1].ppp[30].queue 	"packets dropped by queue" 	0
scalar InetUnderlayNetwork.accessRouter[1].ppp[31].queue 	"packets received by queue" 	1611
scalar InetUnderlayNetwork.accessRouter[1].ppp[31].queue 	"packets dropped by queue" 	0
scalar InetUnderlayNetwork.accessRouter[1].ppp[32].queue 	"packets received by queue" 	1607
scalar InetUnderlayNetwork.accessRouter[1].ppp[32].queue 	"packets dropped by queue" 	0
scalar InetUnderlayNetwork.accessRouter[1].ppp[33].queue 	"packets received by queue" 	1578
scalar InetUnderlayNetwork.accessRouter[1].ppp[33].queue 	"packets dropped by queue" 	0
scalar InetUnderlayNetwork.accessRouter[1].ppp[34].queue 	"packets received by queue" 	1577
scalar InetUnderlayNetwork.accessRouter[1].ppp[34].queue 	"packets dropped by queue" 	0
scalar InetUnderlayNetwork.accessRouter[1].ppp[35].queue 	"packets received by queue" 	1580
scalar InetUnderlayNetwork.accessRouter[1].ppp[35].queue 	"packets dropped by queue" 	0
scalar InetUnderlayNetwork.accessRouter[1].ppp[36].queue 	"packets received by queue" 	1538
scalar InetUnderlayNetwork.accessRouter[1].ppp[36].queue 	"packets dropped by queue" 	0
scalar InetUnderlayNetwork.accessRouter[1].ppp[37].queue 	"packets received by queue" 	1538
scalar InetUnderlayNetwork.accessRouter[1].ppp[37].queue 	"packets dropped by queue" 	0
scalar InetUnderlayNetwork.accessRouter[1].ppp[38].queue 	"packets received by queue" 	1535
scalar InetUnderlayNetwork.accessRouter[1].ppp[38].queue 	"packets dropped by queue" 	0
scalar InetUnderlayNetwork.accessRouter[1].ppp[39].queue 	"packets received by queue" 	1521
scalar InetUnderlayNetwork.accessRouter[1].ppp[39].queue 	"packets dropped by queue" 	0
scalar InetUnderlayNetwork.accessRouter[1].ppp[40].queue 	"packets received by queue" 	1521
scalar InetUnderlayNetwork.accessRouter[1].ppp[40].queue 	"packets dropped by queue" 	0
scalar InetUnderlayNetwork.accessRouter[1].ppp[41].queue 	"packets received by queue" 	1521
scalar InetUnderlayNetwork.accessRouter[1].ppp[41].queue 	"packets dropped by queue" 	0
scalar InetUnderlayNetwork.accessRouter[1].ppp[42].queue 	"packets received by queue" 	1471
scalar InetUnderlayNetwork.accessRouter[1].ppp[42].queue 	"packets dropped by queue" 	0
scalar InetUnderlayNetwork.accessRouter[1].ppp[43].queue 	"packets received by queue" 	1471
scalar InetUnderlayNetwork.accessRouter[1].ppp[43].queue 	"packets dropped by queue" 	0
scalar InetUnderlayNetwork.accessRouter[1].ppp[44].queue 	"packets received by queue" 	1523
scalar InetUnderlayNetwork.accessRouter[1].ppp[44].queue 	"packets dropped by queue" 	0
scalar InetUnderlayNetwork.accessRouter[1].ppp[45].queue 	"packets received by queue" 	1510
scalar InetUnderlayNetwork.accessRouter[1].ppp[45].queue 	"packets dropped by queue" 	0
scalar InetUnderlayNetwork.accessRouter[1].ppp[46].queue 	"packets received by queue" 	1506
scalar InetUnderlayNetwork.accessRouter[1].ppp[46].queue 	"packets dropped by queue" 	0
scalar InetUnderlayNetwork.accessRouter[1].ppp[47].queue 	"packets received by queue" 	1475
scalar InetUnderlayNetwork.accessRouter[1].ppp[47].queue 	"packets dropped by queue" 	0
scalar InetUnderlayNetwork.accessRouter[1].ppp[48].queue 	"packets received by queue" 	1465
scalar InetUnderlayNetwork.accessRouter[1].ppp[48].queue 	"packets dropped by queue" 	0
scalar InetUnderlayNetwork.accessRouter[1].ppp[49].queue 	"packets received by queue" 	1502
scalar InetUnderlayNetwork.accessRouter[1].ppp[49].queue 	"packets dropped by queue" 	0
scalar InetUnderlayNetwork.accessRouter[1].ppp[50].queue 	"packets received by queue" 	1495
scalar InetUnderlayNetwork.accessRouter[1].ppp[50].queue 	"packets dropped by queue" 	0
scalar InetUnderlayNetwork.accessRouter[1].ppp[51].queue 	"packets received by queue" 	1495
scalar InetUnderlayNetwork.accessRouter[1].ppp[51].queue 	"packets dropped by queue" 	0
scalar InetUnderlayNetwork.accessRouter[1].ppp[52].queue 	"packets received by queue" 	1495
scalar InetUnderlayNetwork.accessRouter[1].ppp[52].queue 	"packets dropped by queue" 	0
scalar InetUnderlayNetwork.accessRouter[1].ppp[53].queue 	"packets received by queue" 	1482
scalar InetUnderlayNetwork.accessRouter[1].ppp[53].queue 	"packets dropped by queue" 	0
scalar InetUnderlayNetwork.accessRouter[1].ppp[54].queue 	"packets received by queue" 	1443
scalar InetUnderlayNetwork.accessRouter[1].ppp[54].queue 	"packets dropped by queue" 	0
scalar InetUnderlayNetwork.accessRouter[1].ppp[55].queue 	"packets received by queue" 	1434
scalar InetUnderlayNetwork.accessRouter[1].ppp[55].queue 	"packets dropped by queue" 	0
scalar InetUnderlayNetwork.accessRouter[1].ppp[56].queue 	"packets received by queue" 	1434
scalar InetUnderlayNetwork.accessRouter[1].ppp[56].queue 	"packets dropped by queue" 	0
scalar InetUnderlayNetwork.accessRouter[1].ppp[57].queue 	"packets received by queue" 	1474
scalar InetUnderlayNetwork.accessRouter[1].ppp[57].queue 	"packets dropped by queue" 	0
scalar InetUnderlayNetwork.accessRouter[1].ppp[58].queue 	"packets received by queue" 	1471
scalar InetUnderlayNetwork.accessRouter[1].ppp[58].queue 	"packets dropped by queue" 	0
scalar InetUnderlayNetwork.accessRouter[1].ppp[59].queue 	"packets received by queue" 	1465
scalar InetUnderlayNetwork.accessRouter[1].ppp[59].queue 	"packets dropped by queue" 	0
scalar InetUnderlayNetwork.accessRouter[1].ppp[60].queue 	"packets received by queue" 	1502
scalar InetUnderlayNetwork.accessRouter[1].ppp[60].queue 	"packets dropped by queue" 	0
scalar InetUnderlayNetwork.accessRouter[1].ppp[61].queue 	"packets received by queue" 	1492
scalar InetUnderlayNetwork.accessRouter[1].ppp[61].queue 	"packets dropped by queue" 	0
scalar InetUnderlayNetwork.accessRouter[1].ppp[62].queue 	"packets received by queue" 	1442
scalar InetUnderlayNetwork.accessRouter[1].ppp[62].queue 	"packets dropped by queue" 	0
scalar InetUnderlayNetwork.accessRouter[1].ppp[63].queue 	"packets received by queue" 	1433
scalar InetUnderlayNetwork.accessRouter[1].ppp[63].queue 	"packets dropped by queue" 	0
scalar InetUnderlayNetwork.globalObserver.globalFunctions[0].function.observer 	"MessageObserver: Total Sent Messages" 	0
scalar InetUnderlayNetwork.globalObserver.globalFunctions[0].function.observer 	"MessageObserver: Total Received Messages" 	0
scalar InetUnderlayNetwork.globalObserver.globalFunctions[0].function.observer 	"MessageObserver: Total Delivered Percentage" 	-nan
scalar InetUnderlayNetwork.overlayTerminal[0].networkLayer.arp 	"ARP requests sent" 	0
scalar InetUnderlayNetwork.overlayTerminal[0].networkLayer.arp 	"ARP replies sent" 	0
scalar InetUnderlayNetwork.overlayTerminal[0].networkLayer.arp 	"ARP resolutions" 	0
scalar InetUnderlayNetwork.overlayTerminal[0].networkLayer.arp 	"failed ARP resolutions" 	0
scalar InetUnderlayNetwork.overlayTerminal[0].ppp[0].queue 	"packets received by queue" 	10805
scalar InetUnderlayNetwork.overlayTerminal[0].ppp[0].queue 	"packets dropped by queue" 	0
scalar InetUnderlayNetwork.overlayTerminal[1].networkLayer.arp 	"ARP requests sent" 	0
scalar InetUnderlayNetwork.overlayTerminal[1].networkLayer.arp 	"ARP replies sent" 	0
scalar InetUnderlayNetwork.overlayTerminal[1].networkLayer.arp 	"ARP resolutions" 	0
scalar InetUnderlayNetwork.overlayTerminal[1].networkLayer.arp 	"failed ARP resolutions" 	0
scalar InetUnderlayNetwork.overlayTerminal[1].ppp[0].queue 	"packets received by queue" 	6297
scalar InetUnderlayNetwork.overlayTerminal[1].ppp[0].queue 	"packets dropped by queue" 	0
scalar InetUnderlayNetwork.overlayTerminal[2].networkLayer.arp 	"ARP requests sent" 	0
scalar InetUnderlayNetwork.overlayTerminal[2].networkLayer.arp 	"ARP replies sent" 	0
scalar InetUnderlayNetwork.overlayTerminal[2].networkLayer.arp 	"ARP resolutions" 	0
scalar InetUnderlayNetwork.overlayTerminal[2].networkLayer.arp 	"failed ARP resolutions" 	0
scalar InetUnderlayNetwork.overlayTerminal[2].ppp[0].queue 	"packets received by queue" 	497
scalar InetUnderlayNetwork.overlayTerminal[2].ppp[0].queue 	"packets dropped by queue" 	0
scalar InetUnderlayNetwork.overlayTerminal[3].networkLayer.arp 	"ARP requests sent" 	0
scalar InetUnderlayNetwork.overlayTerminal[3].networkLayer.arp 	"ARP replies sent" 	0
scalar InetUnderlayNetwork.overlayTerminal[3].networkLayer.arp 	"ARP resolutions" 	0
scalar InetUnderlayNetwork.overlayTerminal[3].networkLayer.arp 	"failed ARP resolutions" 	0
scalar InetUnderlayNetwork.overlayTerminal[3].ppp[0].queue 	"packets received by queue" 	482
scalar InetUnderlayNetwork.overlayTerminal[3].ppp[0].queue 	"packets dropped by queue" 	0
scalar InetUnderlayNetwork.overlayTerminal[4].networkLayer.arp 	"ARP requests sent" 	0
scalar InetUnderlayNetwork.overlayTerminal[4].networkLayer.arp 	"ARP replies sent" 	0
scalar InetUnderlayNetwork.overlayTerminal[4].networkLayer.arp 	"ARP resolutions" 	0
scalar InetUnderlayNetwork.overlayTerminal[4].networkLayer.arp 	"failed ARP resolutions" 	0
scalar InetUnderlayNetwork.overlayTerminal[4].ppp[0].queue 	"packets received by queue" 	489
scalar InetUnderlayNetwork.overlayTerminal[4].ppp[0].queue 	"packets dropped by queue" 	0
scalar InetUnderlayNetwork.overlayTerminal[5].networkLayer.arp 	"ARP requests sent" 	0
scalar InetUnderlayNetwork.overlayTerminal[5].networkLayer.arp 	"ARP replies sent" 	0
scalar InetUnderlayNetwork.overlayTerminal[5].networkLayer.arp 	"ARP resolutions" 	0
scalar InetUnderlayNetwork.overlayTerminal[5].networkLayer.arp 	"failed ARP resolutions" 	0
scalar InetUnderlayNetwork.overlayTerminal[5].ppp[0].queue 	"packets received by queue" 	493
scalar InetUnderlayNetwork.overlayTerminal[5].ppp[0].queue 	"packets dropped by queue" 	0
scalar InetUnderlayNetwork.overlayTerminal[6].networkLayer.arp 	"ARP requests sent" 	0
scalar InetUnderlayNetwork.overlayTerminal[6].networkLayer.arp 	"ARP replies sent" 	0
scalar InetUnderlayNetwork.overlayTerminal[6].networkLayer.arp 	"ARP resolutions" 	0
scalar InetUnderlayNetwork.overlayTerminal[6].networkLayer.arp 	"failed ARP resolutions" 	0
scalar InetUnderlayNetwork.overlayTerminal[6].ppp[0].queue 	"packets received by queue" 	485
scalar InetUnderlayNetwork.overlayTerminal[6].ppp[0].queue 	"packets dropped by queue" 	0
scalar InetUnderlayNetwork.overlayTerminal[7].networkLayer.arp 	"ARP requests sent" 	0
scalar InetUnderlayNetwork.overlayTerminal[7].networkLayer.arp 	"ARP replies sent" 	0
scalar InetUnderlayNetwork.overlayTerminal[7].networkLayer.arp 	"ARP resolutions" 	0
scalar InetUnderlayNetwork.overlayTerminal[7].networkLayer.arp 	"failed ARP resolutions" 	0
scalar InetUnderlayNetwork.overlayTerminal[7].ppp[0].queue 	"packets received by queue" 	10034
scalar InetUnderlayNetwork.overlayTerminal[7].ppp[0].queue 	"packets dropped by queue" 	0
scalar InetUnderlayNetwork.overlayTerminal[8].networkLayer.arp 	"ARP requests sent" 	0
scalar InetUnderlayNetwork.overlayTerminal[8].networkLayer.arp 	"ARP replies sent" 	0
scalar InetUnderlayNetwork.overlayTerminal[8].networkLayer.arp 	"ARP resolutions" 	0
scalar InetUnderlayNetwork.overlayTerminal[8].networkLayer.arp 	"failed ARP resolutions" 	0
scalar InetUnderlayNetwork.overlayTerminal[8].ppp[0].queue 	"packets received by queue" 	478
scalar InetUnderlayNetwork.overlayTerminal[8].ppp[0].queue 	"packets dropped by queue" 	0
scalar InetUnderlayNetwork.overlayTerminal[9].networkLayer.arp 	"ARP requests sent" 	0
scalar InetUnderlayNetwork.overlayTerminal[9].networkLayer.arp 	"ARP replies sent" 	0
scalar InetUnderlayNetwork.overlayTerminal[9].networkLayer.arp 	"ARP resolutions" 	0
scalar InetUnderlayNetwork.overlayTerminal[9].networkLayer.arp 	"failed ARP resolutions" 	0
scalar InetUnderlayNetwork.overlayTerminal[9].ppp[0].queue 	"packets received by queue" 	485
scalar InetUnderlayNetwork.overlayTerminal[9].ppp[0].queue 	"packets dropped by queue" 	0
scalar InetUnderlayNetwork.overlayTerminal[10].networkLayer.arp 	"ARP requests sent" 	0
scalar InetUnderlayNetwork.overlayTerminal[10].networkLayer.arp 	"ARP replies sent" 	0
scalar InetUnderlayNetwork.overlayTerminal[10].networkLayer.arp 	"ARP resolutions" 	0
scalar InetUnderlayNetwork.overlayTerminal[10].networkLayer.arp 	"failed ARP resolutions" 	0
scalar InetUnderlayNetwork.overlayTerminal[10].ppp[0].queue 	"packets received by queue" 	728
scalar InetUnderlayNetwork.overlayTerminal[10].ppp[0].queue 	"packets dropped by queue" 	0
scalar InetUnderlayNetwork.overlayTerminal[11].networkLayer.arp 	"ARP requests sent" 	0
scalar InetUnderlayNetwork.overlayTerminal[11].networkLayer.arp 	"ARP replies sent" 	0
scalar InetUnderlayNetwork.overlayTerminal[11].networkLayer.arp 	"ARP resolutions" 	0
scalar InetUnderlayNetwork.overlayTerminal[11].networkLayer.arp 	"failed ARP resolutions" 	0
scalar InetUnderlayNetwork.overlayTerminal[11].ppp[0].queue 	"packets received by queue" 	714
scalar InetUnderlayNetwork.overlayTerminal[11].ppp[0].queue 	"packets dropped by queue" 	0
scalar InetUnderlayNetwork.overlayTerminal[12].networkLayer.arp 	"ARP requests sent" 	0
scalar InetUnderlayNetwork.overlayTerminal[12].networkLayer.arp 	"ARP replies sent" 	0
scalar InetUnderlayNetwork.overlayTerminal[12].networkLayer.arp 	"ARP resolutions" 	0
scalar InetUnderlayNetwork.overlayTerminal[12].networkLayer.arp 	"failed ARP resolutions" 	0
scalar InetUnderlayNetwork.overlayTerminal[12].ppp[0].queue 	"packets received by queue" 	481
scalar InetUnderlayNetwork.overlayTerminal[12].ppp[0].queue 	"packets dropped by queue" 	0
scalar InetUnderlayNetwork.overlayTerminal[13].networkLayer.arp 	"ARP requests sent" 	0
scalar InetUnderlayNetwork.overlayTerminal[13].networkLayer.arp 	"ARP replies sent" 	0
scalar InetUnderlayNetwork.overlayTerminal[13].networkLayer.arp 	"ARP resolutions" 	0
scalar InetUnderlayNetwork.overlayTerminal[13].networkLayer.arp 	"failed ARP resolutions" 	0
scalar InetUnderlayNetwork.overlayTerminal[13].ppp[0].queue 	"packets received by queue" 	621
scalar InetUnderlayNetwork.overlayTerminal[13].ppp[0].queue 	"packets dropped by queue" 	0
scalar InetUnderlayNetwork.overlayTerminal[14].networkLayer.arp 	"ARP requests sent" 	0
scalar InetUnderlayNetwork.overlayTerminal[14].networkLayer.arp 	"ARP replies sent" 	0
scalar InetUnderlayNetwork.overlayTerminal[14].networkLayer.arp 	"ARP resolutions" 	0
scalar InetUnderlayNetwork.overlayTerminal[14].networkLayer.arp 	"failed ARP resolutions" 	0
scalar InetUnderlayNetwork.overlayTerminal[14].ppp[0].queue 	"packets received by queue" 	533
scalar InetUnderlayNetwork.overlayTerminal[14].ppp[0].queue 	"packets dropped by queue" 	0
scalar InetUnderlayNetwork.overlayTerminal[15].networkLayer.arp 	"ARP requests sent" 	0
scalar InetUnderlayNetwork.overlayTerminal[15].networkLayer.arp 	"ARP replies sent" 	0
scalar InetUnderlayNetwork.overlayTerminal[15].networkLayer.arp 	"ARP resolutions" 	0
scalar InetUnderlayNetwork.overlayTerminal[15].networkLayer.arp 	"failed ARP resolutions" 	0
scalar InetUnderlayNetwork.overlayTerminal[15].ppp[0].queue 	"packets received by queue" 	533
scalar InetUnderlayNetwork.overlayTerminal[15].ppp[0].queue 	"packets dropped by queue" 	0
scalar InetUnderlayNetwork.overlayTerminal[16].networkLayer.arp 	"ARP requests sent" 	0
scalar InetUnderlayNetwork.overlayTerminal[16].networkLayer.arp 	"ARP replies sent" 	0
scalar InetUnderlayNetwork.overlayTerminal[16].networkLayer.arp 	"ARP resolutions" 	0
scalar InetUnderlayNetwork.overlayTerminal[16].networkLayer.arp 	"failed ARP resolutions" 	0
scalar InetUnderlayNetwork.overlayTerminal[16].ppp[0].queue 	"packets received by queue" 	12998
scalar InetUnderlayNetwork.overlayTerminal[16].ppp[0].queue 	"packets dropped by queue" 	0
scalar InetUnderlayNetwork.overlayTerminal[17].networkLayer.arp 	"ARP requests sent" 	0
scalar InetUnderlayNetwork.overlayTerminal[17].networkLayer.arp 	"ARP replies sent" 	0
scalar InetUnderlayNetwork.overlayTerminal[17].networkLayer.arp 	"ARP resolutions" 	0
scalar InetUnderlayNetwork.overlayTerminal[17].networkLayer.arp 	"failed ARP resolutions" 	0
scalar InetUnderlayNetwork.overlayTerminal[17].ppp[0].queue 	"packets received by queue" 	533
scalar InetUnderlayNetwork.overlayTerminal[17].ppp[0].queue 	"packets dropped by queue" 	0
scalar InetUnderlayNetwork.overlayTerminal[18].networkLayer.arp 	"ARP requests sent" 	0
scalar InetUnderlayNetwork.overlayTerminal[18].networkLayer.arp 	"ARP replies sent" 	0
scalar InetUnderlayNetwork.overlayTerminal[18].networkLayer.arp 	"ARP resolutions" 	0
scalar InetUnderlayNetwork.overlayTerminal[18].networkLayer.arp 	"failed ARP resolutions" 	0
scalar InetUnderlayNetwork.overlayTerminal[18].ppp[0].queue 	"packets received by queue" 	485
scalar InetUnderlayNetwork.overlayTerminal[18].ppp[0].queue 	"packets dropped by queue" 	0
scalar InetUnderlayNetwork.overlayTerminal[19].networkLayer.arp 	"ARP requests sent" 	0
scalar InetUnderlayNetwork.overlayTerminal[19].networkLayer.arp 	"ARP replies sent" 	0
scalar InetUnderlayNetwork.overlayTerminal[19].networkLayer.arp 	"ARP resolutions" 	0
scalar InetUnderlayNetwork.overlayTerminal[19].networkLayer.arp 	"failed ARP resolutions" 	0
scalar InetUnderlayNetwork.overlayTerminal[19].ppp[0].queue 	"packets received by queue" 	484
scalar InetUnderlayNetwork.overlayTerminal[19].ppp[0].queue 	"packets dropped by queue" 	0
scalar InetUnderlayNetwork.overlayTerminal[20].networkLayer.arp 	"ARP requests sent" 	0
scalar InetUnderlayNetwork.overlayTerminal[20].networkLayer.arp 	"ARP replies sent" 	0
scalar InetUnderlayNetwork.overlayTerminal[20].networkLayer.arp 	"ARP resolutions" 	0
scalar InetUnderlayNetwork.overlayTerminal[20].networkLayer.arp 	"failed ARP resolutions" 	0
scalar InetUnderlayNetwork.overlayTerminal[20].ppp[0].queue 	"packets received by queue" 	525
scalar InetUnderlayNetwork.overlayTerminal[20].ppp[0].queue 	"packets dropped by queue" 	0
scalar InetUnderlayNetwork.overlayTerminal[21].networkLayer.arp 	"ARP requests sent" 	0
scalar InetUnderlayNetwork.overlayTerminal[21].networkLayer.arp 	"ARP replies sent" 	0
scalar InetUnderlayNetwork.overlayTerminal[21].networkLayer.arp 	"ARP resolutions" 	0
scalar InetUnderlayNetwork.overlayTerminal[21].networkLayer.arp 	"failed ARP resolutions" 	0
scalar InetUnderlayNetwork.overlayTerminal[21].ppp[0].queue 	"packets received by queue" 	9610
scalar InetUnderlayNetwork.overlayTerminal[21].ppp[0].queue 	"packets dropped by queue" 	0
scalar InetUnderlayNetwork.overlayTerminal[22].networkLayer.arp 	"ARP requests sent" 	0
scalar InetUnderlayNetwork.overlayTerminal[22].networkLayer.arp 	"ARP replies sent" 	0
scalar InetUnderlayNetwork.overlayTerminal[22].networkLayer.arp 	"ARP resolutions" 	0
scalar InetUnderlayNetwork.overlayTerminal[22].networkLayer.arp 	"failed ARP resolutions" 	0
scalar InetUnderlayNetwork.overlayTerminal[22].ppp[0].queue 	"packets received by queue" 	11231
scalar InetUnderlayNetwork.overlayTerminal[22].ppp[0].queue 	"packets dropped by queue" 	0
scalar InetUnderlayNetwork.overlayTerminal[23].networkLayer.arp 	"ARP requests sent" 	0
scalar InetUnderlayNetwork.overlayTerminal[23].networkLayer.arp 	"ARP replies sent" 	0
scalar InetUnderlayNetwork.overlayTerminal[23].networkLayer.arp 	"ARP resolutions" 	0
scalar InetUnderlayNetwork.overlayTerminal[23].networkLayer.arp 	"failed ARP resolutions" 	0
scalar InetUnderlayNetwork.overlayTerminal[23].ppp[0].queue 	"packets received by queue" 	463
scalar InetUnderlayNetwork.overlayTerminal[23].ppp[0].queue 	"packets dropped by queue" 	0
scalar InetUnderlayNetwork.overlayTerminal[24].networkLayer.arp 	"ARP requests sent" 	0
scalar InetUnderlayNetwork.overlayTerminal[24].networkLayer.arp 	"ARP replies sent" 	0
scalar InetUnderlayNetwork.overlayTerminal[24].networkLayer.arp 	"ARP resolutions" 	0
scalar InetUnderlayNetwork.overlayTerminal[24].networkLayer.arp 	"failed ARP resolutions" 	0
scalar InetUnderlayNetwork.overlayTerminal[24].ppp[0].queue 	"packets received by queue" 	518
scalar InetUnderlayNetwork.overlayTerminal[24].ppp[0].queue 	"packets dropped by queue" 	0
scalar InetUnderlayNetwork.overlayTerminal[25].networkLayer.arp 	"ARP requests sent" 	0
scalar InetUnderlayNetwork.overlayTerminal[25].networkLayer.arp 	"ARP replies sent" 	0
scalar InetUnderlayNetwork.overlayTerminal[25].networkLayer.arp 	"ARP resolutions" 	0
scalar InetUnderlayNetwork.overlayTerminal[25].networkLayer.arp 	"failed ARP resolutions" 	0
scalar InetUnderlayNetwork.overlayTerminal[25].ppp[0].queue 	"packets received by queue" 	474
scalar InetUnderlayNetwork.overlayTerminal[25].ppp[0].queue 	"packets dropped by queue" 	0
scalar InetUnderlayNetwork.overlayTerminal[26].networkLayer.arp 	"ARP requests sent" 	0
scalar InetUnderlayNetwork.overlayTerminal[26].networkLayer.arp 	"ARP replies sent" 	0
scalar InetUnderlayNetwork.overlayTerminal[26].networkLayer.arp 	"ARP resolutions" 	0
scalar InetUnderlayNetwork.overlayTerminal[26].networkLayer.arp 	"failed ARP resolutions" 	0
scalar InetUnderlayNetwork.overlayTerminal[26].ppp[0].queue 	"packets received by queue" 	474
scalar InetUnderlayNetwork.overlayTerminal[26].ppp[0].queue 	"packets dropped by queue" 	0
scalar InetUnderlayNetwork.overlayTerminal[27].networkLayer.arp 	"ARP requests sent" 	0
scalar InetUnderlayNetwork.overlayTerminal[27].networkLayer.arp 	"ARP replies sent" 	0
scalar InetUnderlayNetwork.overlayTerminal[27].networkLayer.arp 	"ARP resolutions" 	0
scalar InetUnderlayNetwork.overlayTerminal[27].networkLayer.arp 	"failed ARP resolutions" 	0
scalar InetUnderlayNetwork.overlayTerminal[27].ppp[0].queue 	"packets received by queue" 	471
scalar InetUnderlayNetwork.overlayTerminal[27].ppp[0].queue 	"packets dropped by queue" 	0
scalar InetUnderlayNetwork.overlayTerminal[28].networkLayer.arp 	"ARP requests sent" 	0
scalar InetUnderlayNetwork.overlayTerminal[28].networkLayer.arp 	"ARP replies sent" 	0
scalar InetUnderlayNetwork.overlayTerminal[28].networkLayer.arp 	"ARP resolutions" 	0
scalar InetUnderlayNetwork.overlayTerminal[28].networkLayer.arp 	"failed ARP resolutions" 	0
scalar InetUnderlayNetwork.overlayTerminal[28].ppp[0].queue 	"packets received by queue" 	472
scalar InetUnderlayNetwork.overlayTerminal[28].ppp[0].queue 	"packets dropped by queue" 	0
scalar InetUnderlayNetwork.overlayTerminal[29].networkLayer.arp 	"ARP requests sent" 	0
scalar InetUnderlayNetwork.overlayTerminal[29].networkLayer.arp 	"ARP replies sent" 	0
scalar InetUnderlayNetwork.overlayTerminal[29].networkLayer.arp 	"ARP resolutions" 	0
scalar InetUnderlayNetwork.overlayTerminal[29].networkLayer.arp 	"failed ARP resolutions" 	0
scalar InetUnderlayNetwork.overlayTerminal[29].ppp[0].queue 	"packets received by queue" 	12379
scalar InetUnderlayNetwork.overlayTerminal[29].ppp[0].queue 	"packets dropped by queue" 	0
scalar InetUnderlayNetwork.overlayTerminal[30].networkLayer.arp 	"ARP requests sent" 	0
scalar InetUnderlayNetwork.overlayTerminal[30].networkLayer.arp 	"ARP replies sent" 	0
scalar InetUnderlayNetwork.overlayTerminal[30].networkLayer.arp 	"ARP resolutions" 	0
scalar InetUnderlayNetwork.overlayTerminal[30].networkLayer.arp 	"failed ARP resolutions" 	0
scalar InetUnderlayNetwork.overlayTerminal[30].ppp[0].queue 	"packets received by queue" 	6615
scalar InetUnderlayNetwork.overlayTerminal[30].ppp[0].queue 	"packets dropped by queue" 	0
scalar InetUnderlayNetwork.overlayTerminal[31].networkLayer.arp 	"ARP requests sent" 	0
scalar InetUnderlayNetwork.overlayTerminal[31].networkLayer.arp 	"ARP replies sent" 	0
scalar InetUnderlayNetwork.overlayTerminal[31].networkLayer.arp 	"ARP resolutions" 	0
scalar InetUnderlayNetwork.overlayTerminal[31].networkLayer.arp 	"failed ARP resolutions" 	0
scalar InetUnderlayNetwork.overlayTerminal[31].ppp[0].queue 	"packets received by queue" 	596
scalar InetUnderlayNetwork.overlayTerminal[31].ppp[0].queue 	"packets dropped by queue" 	0
scalar InetUnderlayNetwork.overlayTerminal[32].networkLayer.arp 	"ARP requests sent" 	0
scalar InetUnderlayNetwork.overlayTerminal[32].networkLayer.arp 	"ARP replies sent" 	0
scalar InetUnderlayNetwork.overlayTerminal[32].networkLayer.arp 	"ARP resolutions" 	0
scalar InetUnderlayNetwork.overlayTerminal[32].networkLayer.arp 	"failed ARP resolutions" 	0
scalar InetUnderlayNetwork.overlayTerminal[32].ppp[0].queue 	"packets received by queue" 	421
scalar InetUnderlayNetwork.overlayTerminal[32].ppp[0].queue 	"packets dropped by queue" 	0
scalar InetUnderlayNetwork.overlayTerminal[33].networkLayer.arp 	"ARP requests sent" 	0
scalar InetUnderlayNetwork.overlayTerminal[33].networkLayer.arp 	"ARP replies sent" 	0
scalar InetUnderlayNetwork.overlayTerminal[33].networkLayer.arp 	"ARP resolutions" 	0
scalar InetUnderlayNetwork.overlayTerminal[33].networkLayer.arp 	"failed ARP resolutions" 	0
scalar InetUnderlayNetwork.overlayTerminal[33].ppp[0].queue 	"packets received by queue" 	428
scalar InetUnderlayNetwork.overlayTerminal[33].ppp[0].queue 	"packets dropped by queue" 	0
scalar InetUnderlayNetwork.overlayTerminal[34].networkLayer.arp 	"ARP requests sent" 	0
scalar InetUnderlayNetwork.overlayTerminal[34].networkLayer.arp 	"ARP replies sent" 	0
scalar InetUnderlayNetwork.overlayTerminal[34].networkLayer.arp 	"ARP resolutions" 	0
scalar InetUnderlayNetwork.overlayTerminal[34].networkLayer.arp 	"failed ARP resolutions" 	0
scalar InetUnderlayNetwork.overlayTerminal[34].ppp[0].queue 	"packets received by queue" 	512
scalar InetUnderlayNetwork.overlayTerminal[34].ppp[0].queue 	"packets dropped by queue" 	0
scalar InetUnderlayNetwork.overlayTerminal[35].networkLayer.arp 	"ARP requests sent" 	0
scalar InetUnderlayNetwork.overlayTerminal[35].networkLayer.arp 	"ARP replies sent" 	0
scalar InetUnderlayNetwork.overlayTerminal[35].networkLayer.arp 	"ARP resolutions" 	0
scalar InetUnderlayNetwork.overlayTerminal[35].networkLayer.arp 	"failed ARP resolutions" 	0
scalar InetUnderlayNetwork.overlayTerminal[35].ppp[0].queue 	"packets received by queue" 	504
scalar InetUnderlayNetwork.overlayTerminal[35].ppp[0].queue 	"packets dropped by queue" 	0
scalar InetUnderlayNetwork.overlayTerminal[36].networkLayer.arp 	"ARP requests sent" 	0
scalar InetUnderlayNetwork.overlayTerminal[36].networkLayer.arp 	"ARP replies sent" 	0
scalar InetUnderlayNetwork.overlayTerminal[36].networkLayer.arp 	"ARP resolutions" 	0
scalar InetUnderlayNetwork.overlayTerminal[36].networkLayer.arp 	"failed ARP resolutions" 	0
scalar InetUnderlayNetwork.overlayTerminal[36].ppp[0].queue 	"packets received by queue" 	588
scalar InetUnderlayNetwork.overlayTerminal[36].ppp[0].queue 	"packets dropped by queue" 	0
scalar InetUnderlayNetwork.overlayTerminal[37].networkLayer.arp 	"ARP requests sent" 	0
scalar InetUnderlayNetwork.overlayTerminal[37].networkLayer.arp 	"ARP replies sent" 	0
scalar InetUnderlayNetwork.overlayTerminal[37].networkLayer.arp 	"ARP resolutions" 	0
scalar InetUnderlayNetwork.overlayTerminal[37].networkLayer.arp 	"failed ARP resolutions" 	0
scalar InetUnderlayNetwork.overlayTerminal[37].ppp[0].queue 	"packets received by queue" 	499
scalar InetUnderlayNetwork.overlayTerminal[37].ppp[0].queue 	"packets dropped by queue" 	0
scalar InetUnderlayNetwork.overlayTerminal[38].networkLayer.arp 	"ARP requests sent" 	0
scalar InetUnderlayNetwork.overlayTerminal[38].networkLayer.arp 	"ARP replies sent" 	0
scalar InetUnderlayNetwork.overlayTerminal[38].networkLayer.arp 	"ARP resolutions" 	0
scalar InetUnderlayNetwork.overlayTerminal[38].networkLayer.arp 	"failed ARP resolutions" 	0
scalar InetUnderlayNetwork.overlayTerminal[38].ppp[0].queue 	"packets received by queue" 	7243
scalar InetUnderlayNetwork.overlayTerminal[38].ppp[0].queue 	"packets dropped by queue" 	0
scalar InetUnderlayNetwork.overlayTerminal[39].networkLayer.arp 	"ARP requests sent" 	0
scalar InetUnderlayNetwork.overlayTerminal[39].networkLayer.arp 	"ARP replies sent" 	0
scalar InetUnderlayNetwork.overlayTerminal[39].networkLayer.arp 	"ARP resolutions" 	0
scalar InetUnderlayNetwork.overlayTerminal[39].networkLayer.arp 	"failed ARP resolutions" 	0
scalar InetUnderlayNetwork.overlayTerminal[39].ppp[0].queue 	"packets received by queue" 	493
scalar InetUnderlayNetwork.overlayTerminal[39].ppp[0].queue 	"packets dropped by queue" 	0
scalar InetUnderlayNetwork.overlayTerminal[40].networkLayer.arp 	"ARP requests sent" 	0
scalar InetUnderlayNetwork.overlayTerminal[40].networkLayer.arp 	"ARP replies sent" 	0
scalar InetUnderlayNetwork.overlayTerminal[40].networkLayer.arp 	"ARP resolutions" 	0
scalar InetUnderlayNetwork.overlayTerminal[40].networkLayer.arp 	"failed ARP resolutions" 	0
scalar InetUnderlayNetwork.overlayTerminal[40].ppp[0].queue 	"packets received by queue" 	493
scalar InetUnderlayNetwork.overlayTerminal[40].ppp[0].queue 	"packets dropped by queue" 	0
scalar InetUnderlayNetwork.overlayTerminal[41].networkLayer.arp 	"ARP requests sent" 	0
scalar InetUnderlayNetwork.overlayTerminal[41].networkLayer.arp 	"ARP replies sent" 	0
scalar InetUnderlayNetwork.overlayTerminal[41].networkLayer.arp 	"ARP resolutions" 	0
scalar InetUnderlayNetwork.overlayTerminal[41].networkLayer.arp 	"failed ARP resolutions" 	0
scalar InetUnderlayNetwork.overlayTerminal[41].ppp[0].queue 	"packets received by queue" 	493
scalar InetUnderlayNetwork.overlayTerminal[41].ppp[0].queue 	"packets dropped by queue" 	0
scalar InetUnderlayNetwork.overlayTerminal[42].networkLayer.arp 	"ARP requests sent" 	0
scalar InetUnderlayNetwork.overlayTerminal[42].networkLayer.arp 	"ARP replies sent" 	0
scalar InetUnderlayNetwork.overlayTerminal[42].networkLayer.arp 	"ARP resolutions" 	0
scalar InetUnderlayNetwork.overlayTerminal[42].networkLayer.arp 	"failed ARP resolutions" 	0
scalar InetUnderlayNetwork.overlayTerminal[42].ppp[0].queue 	"packets received by queue" 	444
scalar InetUnderlayNetwork.overlayTerminal[42].ppp[0].queue 	"packets dropped by queue" 	0
scalar InetUnderlayNetwork.overlayTerminal[43].networkLayer.arp 	"ARP requests sent" 	0
scalar InetUnderlayNetwork.overlayTerminal[43].networkLayer.arp 	"ARP replies sent" 	0
scalar InetUnderlayNetwork.overlayTerminal[43].networkLayer.arp 	"ARP resolutions" 	0
scalar InetUnderlayNetwork.overlayTerminal[43].networkLayer.arp 	"failed ARP resolutions" 	0
scalar InetUnderlayNetwork.overlayTerminal[43].ppp[0].queue 	"packets received by queue" 	444
scalar InetUnderlayNetwork.overlayTerminal[43].ppp[0].queue 	"packets dropped by queue" 	0
scalar InetUnderlayNetwork.overlayTerminal[44].networkLayer.arp 	"ARP requests sent" 	0
scalar InetUnderlayNetwork.overlayTerminal[44].networkLayer.arp 	"ARP replies sent" 	0
scalar InetUnderlayNetwork.overlayTerminal[44].networkLayer.arp 	"ARP resolutions" 	0
scalar InetUnderlayNetwork.overlayTerminal[44].networkLayer.arp 	"failed ARP resolutions" 	0
scalar InetUnderlayNetwork.overlayTerminal[44].ppp[0].queue 	"packets received by queue" 	431
scalar InetUnderlayNetwork.overlayTerminal[44].ppp[0].queue 	"packets dropped by queue" 	0
scalar InetUnderlayNetwork.overlayTerminal[45].networkLayer.arp 	"ARP requests sent" 	0
scalar InetUnderlayNetwork.overlayTerminal[45].networkLayer.arp 	"ARP replies sent" 	0
scalar InetUnderlayNetwork.overlayTerminal[45].networkLayer.arp 	"ARP resolutions" 	0
scalar InetUnderlayNetwork.overlayTerminal[45].networkLayer.arp 	"failed ARP resolutions" 	0
scalar InetUnderlayNetwork.overlayTerminal[45].ppp[0].queue 	"packets received by queue" 	432
scalar InetUnderlayNetwork.overlayTerminal[45].ppp[0].queue 	"packets dropped by queue" 	0
scalar InetUnderlayNetwork.overlayTerminal[46].networkLayer.arp 	"ARP requests sent" 	0
scalar InetUnderlayNetwork.overlayTerminal[46].networkLayer.arp 	"ARP replies sent" 	0
scalar InetUnderlayNetwork.overlayTerminal[46].networkLayer.arp 	"ARP resolutions" 	0
scalar InetUnderlayNetwork.overlayTerminal[46].networkLayer.arp 	"failed ARP resolutions" 	0
scalar InetUnderlayNetwork.overlayTerminal[46].ppp[0].queue 	"packets received by queue" 	6048
scalar InetUnderlayNetwork.overlayTerminal[46].ppp[0].queue 	"packets dropped by queue" 	0
scalar InetUnderlayNetwork.overlayTerminal[47].networkLayer.arp 	"ARP requests sent" 	0
scalar InetUnderlayNetwork.overlayTerminal[47].networkLayer.arp 	"ARP replies sent" 	0
scalar InetUnderlayNetwork.overlayTerminal[47].networkLayer.arp 	"ARP resolutions" 	0
scalar InetUnderlayNetwork.overlayTerminal[47].networkLayer.arp 	"failed ARP resolutions" 	0
scalar InetUnderlayNetwork.overlayTerminal[47].ppp[0].queue 	"packets received by queue" 	566
scalar InetUnderlayNetwork.overlayTerminal[47].ppp[0].queue 	"packets dropped by queue" 	0
scalar InetUnderlayNetwork.overlayTerminal[48].networkLayer.arp 	"ARP requests sent" 	0
scalar InetUnderlayNetwork.overlayTerminal[48].networkLayer.arp 	"ARP replies sent" 	0
scalar InetUnderlayNetwork.overlayTerminal[48].networkLayer.arp 	"ARP resolutions" 	0
scalar InetUnderlayNetwork.overlayTerminal[48].networkLayer.arp 	"failed ARP resolutions" 	0
scalar InetUnderlayNetwork.overlayTerminal[48].ppp[0].queue 	"packets received by queue" 	554
scalar InetUnderlayNetwork.overlayTerminal[48].ppp[0].queue 	"packets dropped by queue" 	0
scalar InetUnderlayNetwork.overlayTerminal[49].networkLayer.arp 	"ARP requests sent" 	0
scalar InetUnderlayNetwork.overlayTerminal[49].networkLayer.arp 	"ARP replies sent" 	0
scalar InetUnderlayNetwork.overlayTerminal[49].networkLayer.arp 	"ARP resolutions" 	0
scalar InetUnderlayNetwork.overlayTerminal[49].networkLayer.arp 	"failed ARP resolutions" 	0
scalar InetUnderlayNetwork.overlayTerminal[49].ppp[0].queue 	"packets received by queue" 	554
scalar InetUnderlayNetwork.overlayTerminal[49].ppp[0].queue 	"packets dropped by queue" 	0
scalar InetUnderlayNetwork.overlayTerminal[50].networkLayer.arp 	"ARP requests sent" 	0
scalar InetUnderlayNetwork.overlayTerminal[50].networkLayer.arp 	"ARP replies sent" 	0
scalar InetUnderlayNetwork.overlayTerminal[50].networkLayer.arp 	"ARP resolutions" 	0
scalar InetUnderlayNetwork.overlayTerminal[50].networkLayer.arp 	"failed ARP resolutions" 	0
scalar InetUnderlayNetwork.overlayTerminal[50].ppp[0].queue 	"packets received by queue" 	480
scalar InetUnderlayNetwork.overlayTerminal[50].ppp[0].queue 	"packets dropped by queue" 	0
scalar InetUnderlayNetwork.overlayTerminal[51].networkLayer.arp 	"ARP requests sent" 	0
scalar InetUnderlayNetwork.overlayTerminal[51].networkLayer.arp 	"ARP replies sent" 	0
scalar InetUnderlayNetwork.overlayTerminal[51].networkLayer.arp 	"ARP resolutions" 	0
scalar InetUnderlayNetwork.overlayTerminal[51].networkLayer.arp 	"failed ARP resolutions" 	0
scalar InetUnderlayNetwork.overlayTerminal[51].ppp[0].queue 	"packets received by queue" 	480
scalar InetUnderlayNetwork.overlayTerminal[51].ppp[0].queue 	"packets dropped by queue" 	0
scalar InetUnderlayNetwork.overlayTerminal[52].networkLayer.arp 	"ARP requests sent" 	0
scalar InetUnderlayNetwork.overlayTerminal[52].networkLayer.arp 	"ARP replies sent" 	0
scalar InetUnderlayNetwork.overlayTerminal[52].networkLayer.arp 	"ARP resolutions" 	0
scalar InetUnderlayNetwork.overlayTerminal[52].networkLayer.arp 	"failed ARP resolutions" 	0
scalar InetUnderlayNetwork.overlayTerminal[52].ppp[0].queue 	"packets received by queue" 	10006
scalar InetUnderlayNetwork.overlayTerminal[52].ppp[0].queue 	"packets dropped by queue" 	0
scalar InetUnderlayNetwork.overlayTerminal[53].networkLayer.arp 	"ARP requests sent" 	0
scalar InetUnderlayNetwork.overlayTerminal[53].networkLayer.arp 	"ARP replies sent" 	0
scalar InetUnderlayNetwork.overlayTerminal[53].networkLayer.arp 	"ARP resolutions" 	0
scalar InetUnderlayNetwork.overlayTerminal[53].networkLayer.arp 	"failed ARP resolutions" 	0
scalar InetUnderlayNetwork.overlayTerminal[53].ppp[0].queue 	"packets received by queue" 	371
scalar InetUnderlayNetwork.overlayTerminal[53].ppp[0].queue 	"packets dropped by queue" 	0
scalar InetUnderlayNetwork.overlayTerminal[54].networkLayer.arp 	"ARP requests sent" 	0
scalar InetUnderlayNetwork.overlayTerminal[54].networkLayer.arp 	"ARP replies sent" 	0
scalar InetUnderlayNetwork.overlayTerminal[54].networkLayer.arp 	"ARP resolutions" 	0
scalar InetUnderlayNetwork.overlayTerminal[54].networkLayer.arp 	"failed ARP resolutions" 	0
scalar InetUnderlayNetwork.overlayTerminal[54].ppp[0].queue 	"packets received by queue" 	468
scalar InetUnderlayNetwork.overlayTerminal[54].ppp[0].queue 	"packets dropped by queue" 	0
scalar InetUnderlayNetwork.overlayTerminal[55].networkLayer.arp 	"ARP requests sent" 	0
scalar InetUnderlayNetwork.overlayTerminal[55].networkLayer.arp 	"ARP replies sent" 	0
scalar InetUnderlayNetwork.overlayTerminal[55].networkLayer.arp 	"ARP resolutions" 	0
scalar InetUnderlayNetwork.overlayTerminal[55].networkLayer.arp 	"failed ARP resolutions" 	0
scalar InetUnderlayNetwork.overlayTerminal[55].ppp[0].queue 	"packets received by queue" 	468
scalar InetUnderlayNetwork.overlayTerminal[55].ppp[0].queue 	"packets dropped by queue" 	0
scalar InetUnderlayNetwork.overlayTerminal[56].networkLayer.arp 	"ARP requests sent" 	0
scalar InetUnderlayNetwork.overlayTerminal[56].networkLayer.arp 	"ARP replies sent" 	0
scalar InetUnderlayNetwork.overlayTerminal[56].networkLayer.arp 	"ARP resolutions" 	0
scalar InetUnderlayNetwork.overlayTerminal[56].networkLayer.arp 	"failed ARP resolutions" 	0
scalar InetUnderlayNetwork.overlayTerminal[56].ppp[0].queue 	"packets received by queue" 	465
scalar InetUnderlayNetwork.overlayTerminal[56].ppp[0].queue 	"packets dropped by queue" 	0
scalar InetUnderlayNetwork.overlayTerminal[57].networkLayer.arp 	"ARP requests sent" 	0
scalar InetUnderlayNetwork.overlayTerminal[57].networkLayer.arp 	"ARP replies sent" 	0
scalar InetUnderlayNetwork.overlayTerminal[57].networkLayer.arp 	"ARP resolutions" 	0
scalar InetUnderlayNetwork.overlayTerminal[57].networkLayer.arp 	"failed ARP resolutions" 	0
scalar InetUnderlayNetwork.overlayTerminal[57].ppp[0].queue 	"packets received by queue" 	457
scalar InetUnderlayNetwork.overlayTerminal[57].ppp[0].queue 	"packets dropped by queue" 	0
scalar InetUnderlayNetwork.overlayTerminal[58].networkLayer.arp 	"ARP requests sent" 	0
scalar InetUnderlayNetwork.overlayTerminal[58].networkLayer.arp 	"ARP replies sent" 	0
scalar InetUnderlayNetwork.overlayTerminal[58].networkLayer.arp 	"ARP resolutions" 	0
scalar InetUnderlayNetwork.overlayTerminal[58].networkLayer.arp 	"failed ARP resolutions" 	0
scalar InetUnderlayNetwork.overlayTerminal[58].ppp[0].queue 	"packets received by queue" 	458
scalar InetUnderlayNetwork.overlayTerminal[58].ppp[0].queue 	"packets dropped by queue" 	0
scalar InetUnderlayNetwork.overlayTerminal[59].networkLayer.arp 	"ARP requests sent" 	0
scalar InetUnderlayNetwork.overlayTerminal[59].networkLayer.arp 	"ARP replies sent" 	0
scalar InetUnderlayNetwork.overlayTerminal[59].networkLayer.arp 	"ARP resolutions" 	0
scalar InetUnderlayNetwork.overlayTerminal[59].networkLayer.arp 	"failed ARP resolutions" 	0
scalar InetUnderlayNetwork.overlayTerminal[59].ppp[0].queue 	"packets received by queue" 	7110
scalar InetUnderlayNetwork.overlayTerminal[59].ppp[0].queue 	"packets dropped by queue" 	0
scalar InetUnderlayNetwork.overlayTerminal[60].networkLayer.arp 	"ARP requests sent" 	0
scalar InetUnderlayNetwork.overlayTerminal[60].networkLayer.arp 	"ARP replies sent" 	0
scalar InetUnderlayNetwork.overlayTerminal[60].networkLayer.arp 	"ARP resolutions" 	0
scalar InetUnderlayNetwork.overlayTerminal[60].networkLayer.arp 	"failed ARP resolutions" 	0
scalar InetUnderlayNetwork.overlayTerminal[60].ppp[0].queue 	"packets received by queue" 	458
scalar InetUnderlayNetwork.overlayTerminal[60].ppp[0].queue 	"packets dropped by queue" 	0
scalar InetUnderlayNetwork.overlayTerminal[61].networkLayer.arp 	"ARP requests sent" 	0
scalar InetUnderlayNetwork.overlayTerminal[61].networkLayer.arp 	"ARP replies sent" 	0
scalar InetUnderlayNetwork.overlayTerminal[61].networkLayer.arp 	"ARP resolutions" 	0
scalar InetUnderlayNetwork.overlayTerminal[61].networkLayer.arp 	"failed ARP resolutions" 	0
scalar InetUnderlayNetwork.overlayTerminal[61].ppp[0].queue 	"packets received by queue" 	415
scalar InetUnderlayNetwork.overlayTerminal[61].ppp[0].queue 	"packets dropped by queue" 	0
scalar InetUnderlayNetwork.overlayTerminal[62].networkLayer.arp 	"ARP requests sent" 	0
scalar InetUnderlayNetwork.overlayTerminal[62].networkLayer.arp 	"ARP replies sent" 	0
scalar InetUnderlayNetwork.overlayTerminal[62].networkLayer.arp 	"ARP resolutions" 	0
scalar InetUnderlayNetwork.overlayTerminal[62].networkLayer.arp 	"failed ARP resolutions" 	0
scalar InetUnderlayNetwork.overlayTerminal[62].ppp[0].queue 	"packets received by queue" 	415
scalar InetUnderlayNetwork.overlayTerminal[62].ppp[0].queue 	"packets dropped by queue" 	0
scalar InetUnderlayNetwork.overlayTerminal[63].networkLayer.arp 	"ARP requests sent" 	0
scalar InetUnderlayNetwork.overlayTerminal[63].networkLayer.arp 	"ARP replies sent" 	0
scalar InetUnderlayNetwork.overlayTerminal[63].networkLayer.arp 	"ARP resolutions" 	0
scalar InetUnderlayNetwork.overlayTerminal[63].networkLayer.arp 	"failed ARP resolutions" 	0
scalar InetUnderlayNetwork.overlayTerminal[63].ppp[0].queue 	"packets received by queue" 	453
scalar InetUnderlayNetwork.overlayTerminal[63].ppp[0].queue 	"packets dropped by queue" 	0
scalar InetUnderlayNetwork.overlayTerminal[64].networkLayer.arp 	"ARP requests sent" 	0
scalar InetUnderlayNetwork.overlayTerminal[64].networkLayer.arp 	"ARP replies sent" 	0
scalar InetUnderlayNetwork.overlayTerminal[64].networkLayer.arp 	"ARP resolutions" 	0
scalar InetUnderlayNetwork.overlayTerminal[64].networkLayer.arp 	"failed ARP resolutions" 	0
scalar InetUnderlayNetwork.overlayTerminal[64].ppp[0].queue 	"packets received by queue" 	453
scalar InetUnderlayNetwork.overlayTerminal[64].ppp[0].queue 	"packets dropped by queue" 	0
scalar InetUnderlayNetwork.overlayTerminal[65].networkLayer.arp 	"ARP requests sent" 	0
scalar InetUnderlayNetwork.overlayTerminal[65].networkLayer.arp 	"ARP replies sent" 	0
scalar InetUnderlayNetwork.overlayTerminal[65].networkLayer.arp 	"ARP resolutions" 	0
scalar InetUnderlayNetwork.overlayTerminal[65].networkLayer.arp 	"failed ARP resolutions" 	0
scalar InetUnderlayNetwork.overlayTerminal[65].ppp[0].queue 	"packets received by queue" 	407
scalar InetUnderlayNetwork.overlayTerminal[65].ppp[0].queue 	"packets dropped by queue" 	0
scalar InetUnderlayNetwork.overlayTerminal[66].networkLayer.arp 	"ARP requests sent" 	0
scalar InetUnderlayNetwork.overlayTerminal[66].networkLayer.arp 	"ARP replies sent" 	0
scalar InetUnderlayNetwork.overlayTerminal[66].networkLayer.arp 	"ARP resolutions" 	0
scalar InetUnderlayNetwork.overlayTerminal[66].networkLayer.arp 	"failed ARP resolutions" 	0
scalar InetUnderlayNetwork.overlayTerminal[66].ppp[0].queue 	"packets received by queue" 	5937
scalar InetUnderlayNetwork.overlayTerminal[66].ppp[0].queue 	"packets dropped by queue" 	0
scalar InetUnderlayNetwork.overlayTerminal[67].networkLayer.arp 	"ARP requests sent" 	0
scalar InetUnderlayNetwork.overlayTerminal[67].networkLayer.arp 	"ARP replies sent" 	0
scalar InetUnderlayNetwork.overlayTerminal[67].networkLayer.arp 	"ARP resolutions" 	0
scalar InetUnderlayNetwork.overlayTerminal[67].networkLayer.arp 	"failed ARP resolutions" 	0
scalar InetUnderlayNetwork.overlayTerminal[67].ppp[0].queue 	"packets received by queue" 	5909
scalar InetUnderlayNetwork.overlayTerminal[67].ppp[0].queue 	"packets dropped by queue" 	0
scalar InetUnderlayNetwork.overlayTerminal[68].networkLayer.arp 	"ARP requests sent" 	0
scalar InetUnderlayNetwork.overlayTerminal[68].networkLayer.arp 	"ARP replies sent" 	0
scalar InetUnderlayNetwork.overlayTerminal[68].networkLayer.arp 	"ARP resolutions" 	0
scalar InetUnderlayNetwork.overlayTerminal[68].networkLayer.arp 	"failed ARP resolutions" 	0
scalar InetUnderlayNetwork.overlayTerminal[68].ppp[0].queue 	"packets received by queue" 	395
scalar InetUnderlayNetwork.overlayTerminal[68].ppp[0].queue 	"packets dropped by queue" 	0
scalar InetUnderlayNetwork.overlayTerminal[69].networkLayer.arp 	"ARP requests sent" 	0
scalar InetUnderlayNetwork.overlayTerminal[69].networkLayer.arp 	"ARP replies sent" 	0
scalar InetUnderlayNetwork.overlayTerminal[69].networkLayer.arp 	"ARP resolutions" 	0
scalar InetUnderlayNetwork.overlayTerminal[69].networkLayer.arp 	"failed ARP resolutions" 	0
scalar InetUnderlayNetwork.overlayTerminal[69].ppp[0].queue 	"packets received by queue" 	395
scalar InetUnderlayNetwork.overlayTerminal[69].ppp[0].queue 	"packets dropped by queue" 	0
scalar InetUnderlayNetwork.overlayTerminal[70].networkLayer.arp 	"ARP requests sent" 	0
scalar InetUnderlayNetwork.overlayTerminal[70].networkLayer.arp 	"ARP replies sent" 	0
scalar InetUnderlayNetwork.overlayTerminal[70].networkLayer.arp 	"ARP resolutions" 	0
scalar InetUnderlayNetwork.overlayTerminal[70].networkLayer.arp 	"failed ARP resolutions" 	0
scalar InetUnderlayNetwork.overlayTerminal[70].ppp[0].queue 	"packets received by queue" 	395
scalar InetUnderlayNetwork.overlayTerminal[70].ppp[0].queue 	"packets dropped by queue" 	0
scalar InetUnderlayNetwork.overlayTerminal[71].networkLayer.arp 	"ARP requests sent" 	0
scalar InetUnderlayNetwork.overlayTerminal[71].networkLayer.arp 	"ARP replies sent" 	0
scalar InetUnderlayNetwork.overlayTerminal[71].networkLayer.arp 	"ARP resolutions" 	0
scalar InetUnderlayNetwork.overlayTerminal[71].networkLayer.arp 	"failed ARP resolutions" 	0
scalar InetUnderlayNetwork.overlayTerminal[71].ppp[0].queue 	"packets received by queue" 	4727
scalar InetUnderlayNetwork.overlayTerminal[71].ppp[0].queue 	"packets dropped by queue" 	0
scalar InetUnderlayNetwork.overlayTerminal[72].networkLayer.arp 	"ARP requests sent" 	0
scalar InetUnderlayNetwork.overlayTerminal[72].networkLayer.arp 	"ARP replies sent" 	0
scalar InetUnderlayNetwork.overlayTerminal[72].networkLayer.arp 	"ARP resolutions" 	0
scalar InetUnderlayNetwork.overlayTerminal[72].networkLayer.arp 	"failed ARP resolutions" 	0
scalar InetUnderlayNetwork.overlayTerminal[72].ppp[0].queue 	"packets received by queue" 	347
scalar InetUnderlayNetwork.overlayTerminal[72].ppp[0].queue 	"packets dropped by queue" 	0
scalar InetUnderlayNetwork.overlayTerminal[73].networkLayer.arp 	"ARP requests sent" 	0
scalar InetUnderlayNetwork.overlayTerminal[73].networkLayer.arp 	"ARP replies sent" 	0
scalar InetUnderlayNetwork.overlayTerminal[73].networkLayer.arp 	"ARP resolutions" 	0
scalar InetUnderlayNetwork.overlayTerminal[73].networkLayer.arp 	"failed ARP resolutions" 	0
scalar InetUnderlayNetwork.overlayTerminal[73].ppp[0].queue 	"packets received by queue" 	347
scalar InetUnderlayNetwork.overlayTerminal[73].ppp[0].queue 	"packets dropped by queue" 	0
scalar InetUnderlayNetwork.overlayTerminal[74].networkLayer.arp 	"ARP requests sent" 	0
scalar InetUnderlayNetwork.overlayTerminal[74].networkLayer.arp 	"ARP replies sent" 	0
scalar InetUnderlayNetwork.overlayTerminal[74].networkLayer.arp 	"ARP resolutions" 	0
scalar InetUnderlayNetwork.overlayTerminal[74].networkLayer.arp 	"failed ARP resolutions" 	0
scalar InetUnderlayNetwork.overlayTerminal[74].ppp[0].queue 	"packets received by queue" 	340
scalar InetUnderlayNetwork.overlayTerminal[74].ppp[0].queue 	"packets dropped by queue" 	0
scalar InetUnderlayNetwork.overlayTerminal[75].networkLayer.arp 	"ARP requests sent" 	0
scalar InetUnderlayNetwork.overlayTerminal[75].networkLayer.arp 	"ARP replies sent" 	0
scalar InetUnderlayNetwork.overlayTerminal[75].networkLayer.arp 	"ARP resolutions" 	0
scalar InetUnderlayNetwork.overlayTerminal[75].networkLayer.arp 	"failed ARP resolutions" 	0
scalar InetUnderlayNetwork.overlayTerminal[75].ppp[0].queue 	"packets received by queue" 	397
scalar InetUnderlayNetwork.overlayTerminal[75].ppp[0].queue 	"packets dropped by queue" 	0
scalar InetUnderlayNetwork.overlayTerminal[76].networkLayer.arp 	"ARP requests sent" 	0
scalar InetUnderlayNetwork.overlayTerminal[76].networkLayer.arp 	"ARP replies sent" 	0
scalar InetUnderlayNetwork.overlayTerminal[76].networkLayer.arp 	"ARP resolutions" 	0
scalar InetUnderlayNetwork.overlayTerminal[76].networkLayer.arp 	"failed ARP resolutions" 	0
scalar InetUnderlayNetwork.overlayTerminal[76].ppp[0].queue 	"packets received by queue" 	430
scalar InetUnderlayNetwork.overlayTerminal[76].ppp[0].queue 	"packets dropped by queue" 	0
scalar InetUnderlayNetwork.overlayTerminal[77].networkLayer.arp 	"ARP requests sent" 	0
scalar InetUnderlayNetwork.overlayTerminal[77].networkLayer.arp 	"ARP replies sent" 	0
scalar InetUnderlayNetwork.overlayTerminal[77].networkLayer.arp 	"ARP resolutions" 	0
scalar InetUnderlayNetwork.overlayTerminal[77].networkLayer.arp 	"failed ARP resolutions" 	0
scalar InetUnderlayNetwork.overlayTerminal[77].ppp[0].queue 	"packets received by queue" 	10950
scalar InetUnderlayNetwork.overlayTerminal[77].ppp[0].queue 	"packets dropped by queue" 	0
scalar InetUnderlayNetwork.overlayTerminal[78].networkLayer.arp 	"ARP requests sent" 	0
scalar InetUnderlayNetwork.overlayTerminal[78].networkLayer.arp 	"ARP replies sent" 	0
scalar InetUnderlayNetwork.overlayTerminal[78].networkLayer.arp 	"ARP resolutions" 	0
scalar InetUnderlayNetwork.overlayTerminal[78].networkLayer.arp 	"failed ARP resolutions" 	0
scalar InetUnderlayNetwork.overlayTerminal[78].ppp[0].queue 	"packets received by queue" 	388
scalar InetUnderlayNetwork.overlayTerminal[78].ppp[0].queue 	"packets dropped by queue" 	0
scalar InetUnderlayNetwork.overlayTerminal[79].networkLayer.arp 	"ARP requests sent" 	0
scalar InetUnderlayNetwork.overlayTerminal[79].networkLayer.arp 	"ARP replies sent" 	0
scalar InetUnderlayNetwork.overlayTerminal[79].networkLayer.arp 	"ARP resolutions" 	0
scalar InetUnderlayNetwork.overlayTerminal[79].networkLayer.arp 	"failed ARP resolutions" 	0
scalar InetUnderlayNetwork.overlayTerminal[79].ppp[0].queue 	"packets received by queue" 	388
scalar InetUnderlayNetwork.overlayTerminal[79].ppp[0].queue 	"packets dropped by queue" 	0
scalar InetUnderlayNetwork.overlayTerminal[80].networkLayer.arp 	"ARP requests sent" 	0
scalar InetUnderlayNetwork.overlayTerminal[80].networkLayer.arp 	"ARP replies sent" 	0
scalar InetUnderlayNetwork.overlayTerminal[80].networkLayer.arp 	"ARP resolutions" 	0
scalar InetUnderlayNetwork.overlayTerminal[80].networkLayer.arp 	"failed ARP resolutions" 	0
scalar InetUnderlayNetwork.overlayTerminal[80].ppp[0].queue 	"packets received by queue" 	380
scalar InetUnderlayNetwork.overlayTerminal[80].ppp[0].queue 	"packets dropped by queue" 	0
scalar InetUnderlayNetwork.overlayTerminal[81].networkLayer.arp 	"ARP requests sent" 	0
scalar InetUnderlayNetwork.overlayTerminal[81].networkLayer.arp 	"ARP replies sent" 	0
scalar InetUnderlayNetwork.overlayTerminal[81].networkLayer.arp 	"ARP resolutions" 	0
scalar InetUnderlayNetwork.overlayTerminal[81].networkLayer.arp 	"failed ARP resolutions" 	0
scalar InetUnderlayNetwork.overlayTerminal[81].ppp[0].queue 	"packets received by queue" 	346
scalar InetUnderlayNetwork.overlayTerminal[81].ppp[0].queue 	"packets dropped by queue" 	0
scalar InetUnderlayNetwork.overlayTerminal[82].networkLayer.arp 	"ARP requests sent" 	0
scalar InetUnderlayNetwork.overlayTerminal[82].networkLayer.arp 	"ARP replies sent" 	0
scalar InetUnderlayNetwork.overlayTerminal[82].networkLayer.arp 	"ARP resolutions" 	0
scalar InetUnderlayNetwork.overlayTerminal[82].networkLayer.arp 	"failed ARP resolutions" 	0
scalar InetUnderlayNetwork.overlayTerminal[82].ppp[0].queue 	"packets received by queue" 	344
scalar InetUnderlayNetwork.overlayTerminal[82].ppp[0].queue 	"packets dropped by queue" 	0
scalar InetUnderlayNetwork.overlayTerminal[83].networkLayer.arp 	"ARP requests sent" 	0
scalar InetUnderlayNetwork.overlayTerminal[83].networkLayer.arp 	"ARP replies sent" 	0
scalar InetUnderlayNetwork.overlayTerminal[83].networkLayer.arp 	"ARP resolutions" 	0
scalar InetUnderlayNetwork.overlayTerminal[83].networkLayer.arp 	"failed ARP resolutions" 	0
scalar InetUnderlayNetwork.overlayTerminal[83].ppp[0].queue 	"packets received by queue" 	5965
scalar InetUnderlayNetwork.overlayTerminal[83].ppp[0].queue 	"packets dropped by queue" 	0
scalar InetUnderlayNetwork.overlayTerminal[84].networkLayer.arp 	"ARP requests sent" 	0
scalar InetUnderlayNetwork.overlayTerminal[84].networkLayer.arp 	"ARP replies sent" 	0
scalar InetUnderlayNetwork.overlayTerminal[84].networkLayer.arp 	"ARP resolutions" 	0
scalar InetUnderlayNetwork.overlayTerminal[84].networkLayer.arp 	"failed ARP resolutions" 	0
scalar InetUnderlayNetwork.overlayTerminal[84].ppp[0].queue 	"packets received by queue" 	344
scalar InetUnderlayNetwork.overlayTerminal[84].ppp[0].queue 	"packets dropped by queue" 	0
scalar InetUnderlayNetwork.overlayTerminal[85].networkLayer.arp 	"ARP requests sent" 	0
scalar InetUnderlayNetwork.overlayTerminal[85].networkLayer.arp 	"ARP replies sent" 	0
scalar InetUnderlayNetwork.overlayTerminal[85].networkLayer.arp 	"ARP resolutions" 	0
scalar InetUnderlayNetwork.overlayTerminal[85].networkLayer.arp 	"failed ARP resolutions" 	0
scalar InetUnderlayNetwork.overlayTerminal[85].ppp[0].queue 	"packets received by queue" 	5706
scalar InetUnderlayNetwork.overlayTerminal[85].ppp[0].queue 	"packets dropped by queue" 	0
scalar InetUnderlayNetwork.overlayTerminal[86].networkLayer.arp 	"ARP requests sent" 	0
scalar InetUnderlayNetwork.overlayTerminal[86].networkLayer.arp 	"ARP replies sent" 	0
scalar InetUnderlayNetwork.overlayTerminal[86].networkLayer.arp 	"ARP resolutions" 	0
scalar InetUnderlayNetwork.overlayTerminal[86].networkLayer.arp 	"failed ARP resolutions" 	0
scalar InetUnderlayNetwork.overlayTerminal[86].ppp[0].queue 	"packets received by queue" 	376
scalar InetUnderlayNetwork.overlayTerminal[86].ppp[0].queue 	"packets dropped by queue" 	0
scalar InetUnderlayNetwork.overlayTerminal[87].networkLayer.arp 	"ARP requests sent" 	0
scalar InetUnderlayNetwork.overlayTerminal[87].networkLayer.arp 	"ARP replies sent" 	0
scalar InetUnderlayNetwork.overlayTerminal[87].networkLayer.arp 	"ARP resolutions" 	0
scalar InetUnderlayNetwork.overlayTerminal[87].networkLayer.arp 	"failed ARP resolutions" 	0
scalar InetUnderlayNetwork.overlayTerminal[87].ppp[0].queue 	"packets received by queue" 	376
scalar InetUnderlayNetwork.overlayTerminal[87].ppp[0].queue 	"packets dropped by queue" 	0
scalar InetUnderlayNetwork.overlayTerminal[88].networkLayer.arp 	"ARP requests sent" 	0
scalar InetUnderlayNetwork.overlayTerminal[88].networkLayer.arp 	"ARP replies sent" 	0
scalar InetUnderlayNetwork.overlayTerminal[88].networkLayer.arp 	"ARP resolutions" 	0
scalar InetUnderlayNetwork.overlayTerminal[88].networkLayer.arp 	"failed ARP resolutions" 	0
scalar InetUnderlayNetwork.overlayTerminal[88].ppp[0].queue 	"packets received by queue" 	372
scalar InetUnderlayNetwork.overlayTerminal[88].ppp[0].queue 	"packets dropped by queue" 	0
scalar InetUnderlayNetwork.overlayTerminal[89].networkLayer.arp 	"ARP requests sent" 	0
scalar InetUnderlayNetwork.overlayTerminal[89].networkLayer.arp 	"ARP replies sent" 	0
scalar InetUnderlayNetwork.overlayTerminal[89].networkLayer.arp 	"ARP resolutions" 	0
scalar InetUnderlayNetwork.overlayTerminal[89].networkLayer.arp 	"failed ARP resolutions" 	0
scalar InetUnderlayNetwork.overlayTerminal[89].ppp[0].queue 	"packets received by queue" 	372
scalar InetUnderlayNetwork.overlayTerminal[89].ppp[0].queue 	"packets dropped by queue" 	0
scalar InetUnderlayNetwork.overlayTerminal[90].networkLayer.arp 	"ARP requests sent" 	0
scalar InetUnderlayNetwork.overlayTerminal[90].networkLayer.arp 	"ARP replies sent" 	0
scalar InetUnderlayNetwork.overlayTerminal[90].networkLayer.arp 	"ARP resolutions" 	0
scalar InetUnderlayNetwork.overlayTerminal[90].networkLayer.arp 	"failed ARP resolutions" 	0
scalar InetUnderlayNetwork.overlayTerminal[90].ppp[0].queue 	"packets received by queue" 	369
scalar InetUnderlayNetwork.overlayTerminal[90].ppp[0].queue 	"packets dropped by queue" 	0
scalar InetUnderlayNetwork.overlayTerminal[91].networkLayer.arp 	"ARP requests sent" 	0
scalar InetUnderlayNetwork.overlayTerminal[91].networkLayer.arp 	"ARP replies sent" 	0
scalar InetUnderlayNetwork.overlayTerminal[91].networkLayer.arp 	"ARP resolutions" 	0
scalar InetUnderlayNetwork.overlayTerminal[91].networkLayer.arp 	"failed ARP resolutions" 	0
scalar InetUnderlayNetwork.overlayTerminal[91].ppp[0].queue 	"packets received by queue" 	369
scalar InetUnderlayNetwork.overlayTerminal[91].ppp[0].queue 	"packets dropped by queue" 	0
scalar InetUnderlayNetwork.overlayTerminal[92].networkLayer.arp 	"ARP requests sent" 	0
scalar InetUnderlayNetwork.overlayTerminal[92].networkLayer.arp 	"ARP replies sent" 	0
scalar InetUnderlayNetwork.overlayTerminal[92].networkLayer.arp 	"ARP resolutions" 	0
scalar InetUnderlayNetwork.overlayTerminal[92].networkLayer.arp 	"failed ARP resolutions" 	0
scalar InetUnderlayNetwork.overlayTerminal[92].ppp[0].queue 	"packets received by queue" 	369
scalar InetUnderlayNetwork.overlayTerminal[92].ppp[0].queue 	"packets dropped by queue" 	0
scalar InetUnderlayNetwork.overlayTerminal[93].networkLayer.arp 	"ARP requests sent" 	0
scalar InetUnderlayNetwork.overlayTerminal[93].networkLayer.arp 	"ARP replies sent" 	0
scalar InetUnderlayNetwork.overlayTerminal[93].networkLayer.arp 	"ARP resolutions" 	0
scalar InetUnderlayNetwork.overlayTerminal[93].networkLayer.arp 	"failed ARP resolutions" 	0
scalar InetUnderlayNetwork.overlayTerminal[93].ppp[0].queue 	"packets received by queue" 	5649
scalar InetUnderlayNetwork.overlayTerminal[93].ppp[0].queue 	"packets dropped by queue" 	0
scalar InetUnderlayNetwork.overlayTerminal[94].networkLayer.arp 	"ARP requests sent" 	0
scalar InetUnderlayNetwork.overlayTerminal[94].networkLayer.arp 	"ARP replies sent" 	0
scalar InetUnderlayNetwork.overlayTerminal[94].networkLayer.arp 	"ARP resolutions" 	0
scalar InetUnderlayNetwork.overlayTerminal[94].networkLayer.arp 	"failed ARP resolutions" 	0
scalar InetUnderlayNetwork.overlayTerminal[94].ppp[0].queue 	"packets received by queue" 	356
scalar InetUnderlayNetwork.overlayTerminal[94].ppp[0].queue 	"packets dropped by queue" 	0
scalar InetUnderlayNetwork.overlayTerminal[95].networkLayer.arp 	"ARP requests sent" 	0
scalar InetUnderlayNetwork.overlayTerminal[95].networkLayer.arp 	"ARP replies sent" 	0
scalar InetUnderlayNetwork.overlayTerminal[95].networkLayer.arp 	"ARP resolutions" 	0
scalar InetUnderlayNetwork.overlayTerminal[95].networkLayer.arp 	"failed ARP resolutions" 	0
scalar InetUnderlayNetwork.overlayTerminal[95].ppp[0].queue 	"packets received by queue" 	4468
scalar InetUnderlayNetwork.overlayTerminal[95].ppp[0].queue 	"packets dropped by queue" 	0
scalar InetUnderlayNetwork.overlayTerminal[96].networkLayer.arp 	"ARP requests sent" 	0
scalar InetUnderlayNetwork.overlayTerminal[96].networkLayer.arp 	"ARP replies sent" 	0
scalar InetUnderlayNetwork.overlayTerminal[96].networkLayer.arp 	"ARP resolutions" 	0
scalar InetUnderlayNetwork.overlayTerminal[96].networkLayer.arp 	"failed ARP resolutions" 	0
scalar InetUnderlayNetwork.overlayTerminal[96].ppp[0].queue 	"packets received by queue" 	313
scalar InetUnderlayNetwork.overlayTerminal[96].ppp[0].queue 	"packets dropped by queue" 	0
scalar InetUnderlayNetwork.overlayTerminal[97].networkLayer.arp 	"ARP requests sent" 	0
scalar InetUnderlayNetwork.overlayTerminal[97].networkLayer.arp 	"ARP replies sent" 	0
scalar InetUnderlayNetwork.overlayTerminal[97].networkLayer.arp 	"ARP resolutions" 	0
scalar InetUnderlayNetwork.overlayTerminal[97].networkLayer.arp 	"failed ARP resolutions" 	0
scalar InetUnderlayNetwork.overlayTerminal[97].ppp[0].queue 	"packets received by queue" 	313
scalar InetUnderlayNetwork.overlayTerminal[97].ppp[0].queue 	"packets dropped by queue" 	0
scalar InetUnderlayNetwork.overlayTerminal[98].networkLayer.arp 	"ARP requests sent" 	0
scalar InetUnderlayNetwork.overlayTerminal[98].networkLayer.arp 	"ARP replies sent" 	0
scalar InetUnderlayNetwork.overlayTerminal[98].networkLayer.arp 	"ARP resolutions" 	0
scalar InetUnderlayNetwork.overlayTerminal[98].networkLayer.arp 	"failed ARP resolutions" 	0
scalar InetUnderlayNetwork.overlayTerminal[98].ppp[0].queue 	"packets received by queue" 	313
scalar InetUnderlayNetwork.overlayTerminal[98].ppp[0].queue 	"packets dropped by queue" 	0
scalar InetUnderlayNetwork.overlayTerminal[99].networkLayer.arp 	"ARP requests sent" 	0
scalar InetUnderlayNetwork.overlayTerminal[99].networkLayer.arp 	"ARP replies sent" 	0
scalar InetUnderlayNetwork.overlayTerminal[99].networkLayer.arp 	"ARP resolutions" 	0
scalar InetUnderlayNetwork.overlayTerminal[99].networkLayer.arp 	"failed ARP resolutions" 	0
scalar InetUnderlayNetwork.overlayTerminal[99].ppp[0].queue 	"packets received by queue" 	314
[...]
scalar InetUnderlayNetwork.overlayTerminal[110].ppp[0].queue 	"packets dropped by queue" 	0
scalar InetUnderlayNetwork.overlayTerminal[111].networkLayer.arp 	"ARP requests sent" 	0
scalar InetUnderlayNetwork.overlayTerminal[111].networkLayer.arp 	"ARP replies sent" 	0
scalar InetUnderlayNetwork.overlayTerminal[111].networkLayer.arp 	"ARP resolutions" 	0
scalar InetUnderlayNetwork.overlayTerminal[111].networkLayer.arp 	"failed ARP resolutions" 	0
scalar InetUnderlayNetwork.overlayTerminal[111].ppp[0].queue 	"packets received by queue" 	372
scalar InetUnderlayNetwork.overlayTerminal[111].ppp[0].queue 	"packets dropped by queue" 	0
scalar InetUnderlayNetwork.overlayTerminal[112].networkLayer.arp 	"ARP requests sent" 	0
scalar InetUnderlayNetwork.overlayTerminal[112].networkLayer.arp 	"ARP replies sent" 	0
scalar InetUnderlayNetwork.overlayTerminal[112].networkLayer.arp 	"ARP resolutions" 	0
scalar InetUnderlayNetwork.overlayTerminal[112].networkLayer.arp 	"failed ARP resolutions" 	0
scalar InetUnderlayNetwork.overlayTerminal[112].ppp[0].queue 	"packets received by queue" 	372
scalar InetUnderlayNetwork.overlayTerminal[112].ppp[0].queue 	"packets dropped by queue" 	0
scalar InetUnderlayNetwork.overlayTerminal[113].networkLayer.arp 	"ARP requests sent" 	0
scalar InetUnderlayNetwork.overlayTerminal[113].networkLayer.arp 	"ARP replies sent" 	0
scalar InetUnderlayNetwork.overlayTerminal[113].networkLayer.arp 	"ARP resolutions" 	0
scalar InetUnderlayNetwork.overlayTerminal[113].networkLayer.arp 	"failed ARP resolutions" 	0
scalar InetUnderlayNetwork.overlayTerminal[113].ppp[0].queue 	"packets received by queue" 	363
scalar InetUnderlayNetwork.overlayTerminal[113].ppp[0].queue 	"packets dropped by queue" 	0
scalar InetUnderlayNetwork.overlayTerminal[114].networkLayer.arp 	"ARP requests sent" 	0
scalar InetUnderlayNetwork.overlayTerminal[114].networkLayer.arp 	"ARP replies sent" 	0
scalar InetUnderlayNetwork.overlayTerminal[114].networkLayer.arp 	"ARP resolutions" 	0
scalar InetUnderlayNetwork.overlayTerminal[114].networkLayer.arp 	"failed ARP resolutions" 	0
scalar InetUnderlayNetwork.overlayTerminal[114].ppp[0].queue 	"packets received by queue" 	4425
scalar InetUnderlayNetwork.overlayTerminal[114].ppp[0].queue 	"packets dropped by queue" 	0
scalar InetUnderlayNetwork.overlayTerminal[115].networkLayer.arp 	"ARP requests sent" 	0
scalar InetUnderlayNetwork.overlayTerminal[115].networkLayer.arp 	"ARP replies sent" 	0
scalar InetUnderlayNetwork.overlayTerminal[115].networkLayer.arp 	"ARP resolutions" 	0
scalar InetUnderlayNetwork.overlayTerminal[115].networkLayer.arp 	"failed ARP resolutions" 	0
scalar InetUnderlayNetwork.overlayTerminal[115].ppp[0].queue 	"packets received by queue" 	287
scalar InetUnderlayNetwork.overlayTerminal[115].ppp[0].queue 	"packets dropped by queue" 	0
scalar InetUnderlayNetwork.overlayTerminal[116].networkLayer.arp 	"ARP requests sent" 	0
scalar InetUnderlayNetwork.overlayTerminal[116].networkLayer.arp 	"ARP replies sent" 	0
scalar InetUnderlayNetwork.overlayTerminal[116].networkLayer.arp 	"ARP resolutions" 	0
scalar InetUnderlayNetwork.overlayTerminal[116].networkLayer.arp 	"failed ARP resolutions" 	0
scalar InetUnderlayNetwork.overlayTerminal[116].ppp[0].queue 	"packets received by queue" 	287
scalar InetUnderlayNetwork.overlayTerminal[116].ppp[0].queue 	"packets dropped by queue" 	0
scalar InetUnderlayNetwork.overlayTerminal[117].networkLayer.arp 	"ARP requests sent" 	0
scalar InetUnderlayNetwork.overlayTerminal[117].networkLayer.arp 	"ARP replies sent" 	0
scalar InetUnderlayNetwork.overlayTerminal[117].networkLayer.arp 	"ARP resolutions" 	0
scalar InetUnderlayNetwork.overlayTerminal[117].networkLayer.arp 	"failed ARP resolutions" 	0
scalar InetUnderlayNetwork.overlayTerminal[117].ppp[0].queue 	"packets received by queue" 	287
scalar InetUnderlayNetwork.overlayTerminal[117].ppp[0].queue 	"packets dropped by queue" 	0
scalar InetUnderlayNetwork.overlayTerminal[118].networkLayer.arp 	"ARP requests sent" 	0
scalar InetUnderlayNetwork.overlayTerminal[118].networkLayer.arp 	"ARP replies sent" 	0
scalar InetUnderlayNetwork.overlayTerminal[118].networkLayer.arp 	"ARP resolutions" 	0
scalar InetUnderlayNetwork.overlayTerminal[118].networkLayer.arp 	"failed ARP resolutions" 	0
scalar InetUnderlayNetwork.overlayTerminal[118].ppp[0].queue 	"packets received by queue" 	393
scalar InetUnderlayNetwork.overlayTerminal[118].ppp[0].queue 	"packets dropped by queue" 	0
scalar InetUnderlayNetwork.overlayTerminal[119].networkLayer.arp 	"ARP requests sent" 	0
scalar InetUnderlayNetwork.overlayTerminal[119].networkLayer.arp 	"ARP replies sent" 	0
scalar InetUnderlayNetwork.overlayTerminal[119].networkLayer.arp 	"ARP resolutions" 	0
scalar InetUnderlayNetwork.overlayTerminal[119].networkLayer.arp 	"failed ARP resolutions" 	0
scalar InetUnderlayNetwork.overlayTerminal[119].ppp[0].queue 	"packets received by queue" 	317
scalar InetUnderlayNetwork.overlayTerminal[119].ppp[0].queue 	"packets dropped by queue" 	0
scalar InetUnderlayNetwork.overlayTerminal[120].networkLayer.arp 	"ARP requests sent" 	0
scalar InetUnderlayNetwork.overlayTerminal[120].networkLayer.arp 	"ARP replies sent" 	0
scalar InetUnderlayNetwork.overlayTerminal[120].networkLayer.arp 	"ARP resolutions" 	0
scalar InetUnderlayNetwork.overlayTerminal[120].networkLayer.arp 	"failed ARP resolutions" 	0
scalar InetUnderlayNetwork.overlayTerminal[120].ppp[0].queue 	"packets received by queue" 	390
scalar InetUnderlayNetwork.overlayTerminal[120].ppp[0].queue 	"packets dropped by queue" 	0
scalar InetUnderlayNetwork.overlayTerminal[121].networkLayer.arp 	"ARP requests sent" 	0
scalar InetUnderlayNetwork.overlayTerminal[121].networkLayer.arp 	"ARP replies sent" 	0
scalar InetUnderlayNetwork.overlayTerminal[121].networkLayer.arp 	"ARP resolutions" 	0
scalar InetUnderlayNetwork.overlayTerminal[121].networkLayer.arp 	"failed ARP resolutions" 	0
scalar InetUnderlayNetwork.overlayTerminal[121].ppp[0].queue 	"packets received by queue" 	312
scalar InetUnderlayNetwork.overlayTerminal[121].ppp[0].queue 	"packets dropped by queue" 	0
scalar InetUnderlayNetwork.overlayTerminal[122].networkLayer.arp 	"ARP requests sent" 	0
scalar InetUnderlayNetwork.overlayTerminal[122].networkLayer.arp 	"ARP replies sent" 	0
scalar InetUnderlayNetwork.overlayTerminal[122].networkLayer.arp 	"ARP resolutions" 	0
scalar InetUnderlayNetwork.overlayTerminal[122].networkLayer.arp 	"failed ARP resolutions" 	0
scalar InetUnderlayNetwork.overlayTerminal[122].ppp[0].queue 	"packets received by queue" 	390
scalar InetUnderlayNetwork.overlayTerminal[122].ppp[0].queue 	"packets dropped by queue" 	0
scalar InetUnderlayNetwork.overlayTerminal[123].networkLayer.arp 	"ARP requests sent" 	0
scalar InetUnderlayNetwork.overlayTerminal[123].networkLayer.arp 	"ARP replies sent" 	0
scalar InetUnderlayNetwork.overlayTerminal[123].networkLayer.arp 	"ARP resolutions" 	0
scalar InetUnderlayNetwork.overlayTerminal[123].networkLayer.arp 	"failed ARP resolutions" 	0
scalar InetUnderlayNetwork.overlayTerminal[123].ppp[0].queue 	"packets received by queue" 	380
scalar InetUnderlayNetwork.overlayTerminal[123].ppp[0].queue 	"packets dropped by queue" 	0
scalar InetUnderlayNetwork.overlayTerminal[124].networkLayer.arp 	"ARP requests sent" 	0
scalar InetUnderlayNetwork.overlayTerminal[124].networkLayer.arp 	"ARP replies sent" 	0
scalar InetUnderlayNetwork.overlayTerminal[124].networkLayer.arp 	"ARP resolutions" 	0
scalar InetUnderlayNetwork.overlayTerminal[124].networkLayer.arp 	"failed ARP resolutions" 	0
scalar InetUnderlayNetwork.overlayTerminal[124].ppp[0].queue 	"packets received by queue" 	381
scalar InetUnderlayNetwork.overlayTerminal[124].ppp[0].queue 	"packets dropped by queue" 	0
scalar InetUnderlayNetwork.overlayTerminal[125].networkLayer.arp 	"ARP requests sent" 	0
scalar InetUnderlayNetwork.overlayTerminal[125].networkLayer.arp 	"ARP replies sent" 	0
scalar InetUnderlayNetwork.overlayTerminal[125].networkLayer.arp 	"ARP resolutions" 	0
scalar InetUnderlayNetwork.overlayTerminal[125].networkLayer.arp 	"failed ARP resolutions" 	0
scalar InetUnderlayNetwork.overlayTerminal[125].ppp[0].queue 	"packets received by queue" 	381
scalar InetUnderlayNetwork.overlayTerminal[125].ppp[0].queue 	"packets dropped by queue" 	0
scalar InetUnderlayNetwork.overlayTerminal[126].networkLayer.arp 	"ARP requests sent" 	0
scalar InetUnderlayNetwork.overlayTerminal[126].networkLayer.arp 	"ARP replies sent" 	0
scalar InetUnderlayNetwork.overlayTerminal[126].networkLayer.arp 	"ARP resolutions" 	0
scalar InetUnderlayNetwork.overlayTerminal[126].networkLayer.arp 	"failed ARP resolutions" 	0
scalar InetUnderlayNetwork.overlayTerminal[126].ppp[0].queue 	"packets received by queue" 	377
scalar InetUnderlayNetwork.overlayTerminal[126].ppp[0].queue 	"packets dropped by queue" 	0
scalar InetUnderlayNetwork.globalObserver.globalStatistics 	"GlobalStatistics: Simulation Time" 	307.814320376
scalar InetUnderlayNetwork.globalObserver.globalStatistics 	"BaseApp (bootstrapList): Received Bytes/s from Overlay.mean" 	0
scalar InetUnderlayNetwork.globalObserver.globalStatistics 	"BaseApp (bootstrapList): Received Bytes/s from UDP.mean" 	0
scalar InetUnderlayNetwork.globalObserver.globalStatistics 	"BaseApp (bootstrapList): Received Messages/s from Overlay.mean" 	0
scalar InetUnderlayNetwork.globalObserver.globalStatistics 	"BaseApp (bootstrapList): Received Messages/s from UDP.mean" 	0
scalar InetUnderlayNetwork.globalObserver.globalStatistics 	"BaseApp (bootstrapList): Sent Bytes/s to Overlay.mean" 	0
scalar InetUnderlayNetwork.globalObserver.globalStatistics 	"BaseApp (bootstrapList): Sent Bytes/s to UDP.mean" 	0
scalar InetUnderlayNetwork.globalObserver.globalStatistics 	"BaseApp (bootstrapList): Sent Messages/s to Overlay.mean" 	0
scalar InetUnderlayNetwork.globalObserver.globalStatistics 	"BaseApp (bootstrapList): Sent Messages/s to UDP.mean" 	0
scalar InetUnderlayNetwork.globalObserver.globalStatistics 	"BaseApp (neighborCache): Received Bytes/s from Overlay.mean" 	0
scalar InetUnderlayNetwork.globalObserver.globalStatistics 	"BaseApp (neighborCache): Received Bytes/s from UDP.mean" 	0
scalar InetUnderlayNetwork.globalObserver.globalStatistics 	"BaseApp (neighborCache): Received Messages/s from Overlay.mean" 	0
scalar InetUnderlayNetwork.globalObserver.globalStatistics 	"BaseApp (neighborCache): Received Messages/s from UDP.mean" 	0
scalar InetUnderlayNetwork.globalObserver.globalStatistics 	"BaseApp (neighborCache): Sent Bytes/s to Overlay.mean" 	0
scalar InetUnderlayNetwork.globalObserver.globalStatistics 	"BaseApp (neighborCache): Sent Bytes/s to UDP.mean" 	0
scalar InetUnderlayNetwork.globalObserver.globalStatistics 	"BaseApp (neighborCache): Sent Messages/s to Overlay.mean" 	0
scalar InetUnderlayNetwork.globalObserver.globalStatistics 	"BaseApp (neighborCache): Sent Messages/s to UDP.mean" 	0
scalar InetUnderlayNetwork.globalObserver.globalStatistics 	"BaseApp (nicetestapp): Received Bytes/s from Overlay.mean" 	0
scalar InetUnderlayNetwork.globalObserver.globalStatistics 	"BaseApp (nicetestapp): Received Bytes/s from UDP.mean" 	0
scalar InetUnderlayNetwork.globalObserver.globalStatistics 	"BaseApp (nicetestapp): Received Messages/s from Overlay.mean" 	0
scalar InetUnderlayNetwork.globalObserver.globalStatistics 	"BaseApp (nicetestapp): Received Messages/s from UDP.mean" 	0
scalar InetUnderlayNetwork.globalObserver.globalStatistics 	"BaseApp (nicetestapp): Sent Bytes/s to Overlay.mean" 	0
scalar InetUnderlayNetwork.globalObserver.globalStatistics 	"BaseApp (nicetestapp): Sent Bytes/s to UDP.mean" 	0
scalar InetUnderlayNetwork.globalObserver.globalStatistics 	"BaseApp (nicetestapp): Sent Messages/s to Overlay.mean" 	0
scalar InetUnderlayNetwork.globalObserver.globalStatistics 	"BaseApp (nicetestapp): Sent Messages/s to UDP.mean" 	0
scalar InetUnderlayNetwork.globalObserver.globalStatistics 	"BaseApp (tier2): Received Bytes/s from Overlay.mean" 	0
scalar InetUnderlayNetwork.globalObserver.globalStatistics 	"BaseApp (tier2): Received Bytes/s from UDP.mean" 	0
scalar InetUnderlayNetwork.globalObserver.globalStatistics 	"BaseApp (tier2): Received Messages/s from Overlay.mean" 	0
scalar InetUnderlayNetwork.globalObserver.globalStatistics 	"BaseApp (tier2): Received Messages/s from UDP.mean" 	0
scalar InetUnderlayNetwork.globalObserver.globalStatistics 	"BaseApp (tier2): Sent Bytes/s to Overlay.mean" 	0
scalar InetUnderlayNetwork.globalObserver.globalStatistics 	"BaseApp (tier2): Sent Bytes/s to UDP.mean" 	0
scalar InetUnderlayNetwork.globalObserver.globalStatistics 	"BaseApp (tier2): Sent Messages/s to Overlay.mean" 	0
scalar InetUnderlayNetwork.globalObserver.globalStatistics 	"BaseApp (tier2): Sent Messages/s to UDP.mean" 	0
scalar InetUnderlayNetwork.globalObserver.globalStatistics 	"BaseApp (tier3): Received Bytes/s from Overlay.mean" 	0
scalar InetUnderlayNetwork.globalObserver.globalStatistics 	"BaseApp (tier3): Received Bytes/s from UDP.mean" 	0
scalar InetUnderlayNetwork.globalObserver.globalStatistics 	"BaseApp (tier3): Received Messages/s from Overlay.mean" 	0
scalar InetUnderlayNetwork.globalObserver.globalStatistics 	"BaseApp (tier3): Received Messages/s from UDP.mean" 	0
scalar InetUnderlayNetwork.globalObserver.globalStatistics 	"BaseApp (tier3): Sent Bytes/s to Overlay.mean" 	0
scalar InetUnderlayNetwork.globalObserver.globalStatistics 	"BaseApp (tier3): Sent Bytes/s to UDP.mean" 	0
scalar InetUnderlayNetwork.globalObserver.globalStatistics 	"BaseApp (tier3): Sent Messages/s to Overlay.mean" 	0
scalar InetUnderlayNetwork.globalObserver.globalStatistics 	"BaseApp (tier3): Sent Messages/s to UDP.mean" 	0
scalar InetUnderlayNetwork.globalObserver.globalStatistics 	"BaseOverlay: Dropped Bytes/s.mean" 	0
scalar InetUnderlayNetwork.globalObserver.globalStatistics 	"BaseOverlay: Dropped Messages/s.mean" 	0
scalar InetUnderlayNetwork.globalObserver.globalStatistics 	"BaseOverlay: Forwarded App Data Bytes/s.mean" 	0
scalar InetUnderlayNetwork.globalObserver.globalStatistics 	"BaseOverlay: Forwarded App Data Messages/s.mean" 	0
scalar InetUnderlayNetwork.globalObserver.globalStatistics 	"BaseOverlay: Forwarded App Lookup Bytes/s.mean" 	0
scalar InetUnderlayNetwork.globalObserver.globalStatistics 	"BaseOverlay: Forwarded App Lookup Messages/s.mean" 	0
scalar InetUnderlayNetwork.globalObserver.globalStatistics 	"BaseOverlay: Forwarded Maintenance Bytes/s.mean" 	0
scalar InetUnderlayNetwork.globalObserver.globalStatistics 	"BaseOverlay: Forwarded Maintenance Messages/s.mean" 	0
scalar InetUnderlayNetwork.globalObserver.globalStatistics 	"BaseOverlay: Forwarded Total Bytes/s.mean" 	0
scalar InetUnderlayNetwork.globalObserver.globalStatistics 	"BaseOverlay: Forwarded Total Messages/s.mean" 	0
scalar InetUnderlayNetwork.globalObserver.globalStatistics 	"BaseOverlay: Join Retries.mean" 	1
scalar InetUnderlayNetwork.globalObserver.globalStatistics 	"BaseOverlay: Measured Session Time.mean" 	245.38661328579
scalar InetUnderlayNetwork.globalObserver.globalStatistics 	"BaseOverlay: Received App Data Bytes/s.mean" 	0
scalar InetUnderlayNetwork.globalObserver.globalStatistics 	"BaseOverlay: Received App Data Messages/s.mean" 	0
scalar InetUnderlayNetwork.globalObserver.globalStatistics 	"BaseOverlay: Received App Lookup Bytes/s.mean" 	0
scalar InetUnderlayNetwork.globalObserver.globalStatistics 	"BaseOverlay: Received App Lookup Messages/s.mean" 	0
scalar InetUnderlayNetwork.globalObserver.globalStatistics 	"BaseOverlay: Received Maintenance Bytes/s.mean" 	111.23376238116
scalar InetUnderlayNetwork.globalObserver.globalStatistics 	"BaseOverlay: Received Maintenance Messages/s.mean" 	8.6818423203171
scalar InetUnderlayNetwork.globalObserver.globalStatistics 	"BaseOverlay: Received Total Bytes/s.mean" 	111.23376238116
scalar InetUnderlayNetwork.globalObserver.globalStatistics 	"BaseOverlay: Received Total Messages/s.mean" 	8.6818423203171
scalar InetUnderlayNetwork.globalObserver.globalStatistics 	"BaseOverlay: Sent App Data Bytes/s.mean" 	0
scalar InetUnderlayNetwork.globalObserver.globalStatistics 	"BaseOverlay: Sent App Data Messages/s.mean" 	0
scalar InetUnderlayNetwork.globalObserver.globalStatistics 	"BaseOverlay: Sent App Lookup Bytes/s.mean" 	0
scalar InetUnderlayNetwork.globalObserver.globalStatistics 	"BaseOverlay: Sent App Lookup Messages/s.mean" 	0
scalar InetUnderlayNetwork.globalObserver.globalStatistics 	"BaseOverlay: Sent FailedNode Bytes/s.mean" 	0
scalar InetUnderlayNetwork.globalObserver.globalStatistics 	"BaseOverlay: Sent FailedNode Messages/s.mean" 	0
scalar InetUnderlayNetwork.globalObserver.globalStatistics 	"BaseOverlay: Sent FailedNodeResponse Bytes/s.mean" 	0
scalar InetUnderlayNetwork.globalObserver.globalStatistics 	"BaseOverlay: Sent FailedNodeResponse Messages/s.mean" 	0
scalar InetUnderlayNetwork.globalObserver.globalStatistics 	"BaseOverlay: Sent FindNode Bytes/s.mean" 	0
scalar InetUnderlayNetwork.globalObserver.globalStatistics 	"BaseOverlay: Sent FindNode Messages/s.mean" 	0
scalar InetUnderlayNetwork.globalObserver.globalStatistics 	"BaseOverlay: Sent FindNodeResponse Bytes/s.mean" 	0
scalar InetUnderlayNetwork.globalObserver.globalStatistics 	"BaseOverlay: Sent FindNodeResponse Messages/s.mean" 	0
scalar InetUnderlayNetwork.globalObserver.globalStatistics 	"BaseOverlay: Sent Maintenance Bytes/s.mean" 	111.19067181523
scalar InetUnderlayNetwork.globalObserver.globalStatistics 	"BaseOverlay: Sent Maintenance Messages/s.mean" 	8.7140091255481
scalar InetUnderlayNetwork.globalObserver.globalStatistics 	"BaseOverlay: Sent Ping Bytes/s.mean" 	0
scalar InetUnderlayNetwork.globalObserver.globalStatistics 	"BaseOverlay: Sent Ping Messages/s.mean" 	0
scalar InetUnderlayNetwork.globalObserver.globalStatistics 	"BaseOverlay: Sent Ping Response Bytes/s.mean" 	0
scalar InetUnderlayNetwork.globalObserver.globalStatistics 	"BaseOverlay: Sent Ping Response Messages/s.mean" 	0
scalar InetUnderlayNetwork.globalObserver.globalStatistics 	"BaseOverlay: Sent Total Bytes/s.mean" 	111.19067181523
scalar InetUnderlayNetwork.globalObserver.globalStatistics 	"BaseOverlay: Sent Total Messages/s.mean" 	8.7140091255481
scalar InetUnderlayNetwork.globalObserver.globalStatistics 	"Nice: Forwarded Multicast Bytes/s.mean" 	0
scalar InetUnderlayNetwork.globalObserver.globalStatistics 	"Nice: Forwarded Multicast Messages/s.mean" 	93936.336566668
scalar InetUnderlayNetwork.globalObserver.globalStatistics 	"Nice: Inconsistencies/s.mean" 	0
scalar InetUnderlayNetwork.globalObserver.globalStatistics 	"Nice: Own Messages Received/s.mean" 	0
scalar InetUnderlayNetwork.globalObserver.globalStatistics 	"Nice: Peer Timeouts/s.mean" 	0.012823545172642
scalar InetUnderlayNetwork.globalObserver.globalStatistics 	"Nice: Query Timeouts/s.mean" 	0
scalar InetUnderlayNetwork.globalObserver.globalStatistics 	"Nice: Received JOIN Messages/s.mean" 	0.00017270767909282
scalar InetUnderlayNetwork.globalObserver.globalStatistics 	"Nice: Received Multicast Bytes/s (subscribed groups only).mean" 	0
scalar InetUnderlayNetwork.globalObserver.globalStatistics 	"Nice: Received Multicast Messages/s (subscribed groups only).mean" 	6.1366492535262
scalar InetUnderlayNetwork.globalObserver.globalStatistics 	"Nice: SC Minimum Compare/s.mean" 	0.00075216747598429
scalar InetUnderlayNetwork.globalObserver.globalStatistics 	"Nice: Send Heartbeat Bytes/s.mean" 	96.48418117128
scalar InetUnderlayNetwork.globalObserver.globalStatistics 	"Nice: Send Heartbeat Messages/s.mean" 	1.0774800329403
scalar InetUnderlayNetwork.globalObserver.globalStatistics 	"Nice: Structure Partitions/s.mean" 	0
scalar InetUnderlayNetwork.globalObserver.globalStatistics 	"Nice: Temporary Peer Timeouts/s.mean" 	8.6353839546411e-05
scalar InetUnderlayNetwork.globalObserver.globalStatistics 	"Vector: GlobalNodeList: Number of bootstrapped malicious nodes.mean" 	0
scalar InetUnderlayNetwork.globalObserver.globalStatistics 	"Vector: GlobalNodeList: Number of nodes.mean" 	127
